42
M4_solv.log	Energy: -666040.7156431
C         -0.90360        1.74353       -0.96596
N         -1.08865        2.16695        0.41396
C         -0.74021        1.37060        1.42703
C          0.55716        1.79027       -1.40176
H         -1.45715        2.43854       -1.60909
N         -0.48248        1.87541        2.62158
H         -0.42247        2.88040        2.75092
H         -0.40695        1.27727        3.43730
H         -1.22465        3.15457        0.60867
N         -0.65011        0.03848        1.23172
C          0.09996       -1.50232       -0.35436
C          0.94753       -1.71736        0.87151
C          0.35839       -0.78050        1.93751
O          0.28909       -1.93866       -1.45815
H          1.11760       -0.11606        2.36878
H         -0.11032       -1.34272        2.75504
H          0.66332        1.39564       -2.42128
H          0.93228        2.82277       -1.37284
O          1.30249        1.00236       -0.47661
C          2.49227        0.49207       -0.81635
O          2.98200        0.64933       -1.90850
C         -1.50160        0.35525       -1.13459
C         -1.09908       -0.59835        0.00642
N         -2.31512       -1.36923        0.18600
C         -3.36369       -0.73890       -0.36941
N         -2.95208        0.32802       -1.05588
H         -1.16245       -0.08112       -2.08605
N         -4.61240       -1.13131       -0.25282
H         -2.41642       -2.06355        0.92162
H         -3.54127        0.79974       -1.73570
H         -5.35583       -0.62236       -0.71992
H         -4.84547       -1.94061        0.31317
H          0.74095       -2.76300        1.15518
C          3.10382       -0.26361        0.34564
C          2.45565       -1.64268        0.58885
H          2.91923        0.36415        1.23160
H          2.98025       -2.08892        1.44551
C          4.60648       -0.42241        0.14483
H          2.65828       -2.29287       -0.27696
H          5.05379       -0.90927        1.02281
H          4.82178       -1.04166       -0.73857
H          5.09425        0.55310        0.00770
