42
M4_1_solv.log	Energy: -666040.7151788
C         -0.90368        1.74360       -0.96586
N         -1.08874        2.16689        0.41412
C         -0.74020        1.37048        1.42709
C          0.55709        1.79038       -1.40167
H         -1.45723        2.43866       -1.60892
N         -0.48242        1.87520        2.62167
H         -0.42261        2.88018        2.75109
H         -0.40675        1.27699        3.43733
H         -1.22481        3.15449        0.60892
N         -0.64999        0.03839        1.23159
C          0.09997       -1.50228       -0.35458
C          0.94750       -1.71750        0.87130
C          0.35838       -0.78073        1.93740
O          0.28916       -1.93848       -1.45843
H          1.11762       -0.11639        2.36877
H         -0.11041       -1.34298        2.75487
H          0.66321        1.39588       -2.42125
H          0.93222        2.82287       -1.37262
O          1.30251        1.00238       -0.47667
C          2.49233        0.49210       -0.81634
O          2.98213        0.64936       -1.90847
C         -1.50168        0.35533       -1.13461
C         -1.09906       -0.59835        0.00629
N         -2.31507       -1.36926        0.18590
C         -3.36369       -0.73887       -0.36935
N         -2.95214        0.32809       -1.05580
H         -1.16257       -0.08093       -2.08613
N         -4.61239       -1.13126       -0.25263
H         -2.41636       -2.06347        0.92163
H         -3.54136        0.79985       -1.73557
H         -5.35588       -0.62225       -0.71958
H         -4.84538       -1.94071        0.31318
H          0.74091       -2.76317        1.15483
C          3.10375       -0.26357        0.34572
C          2.45563       -1.64272        0.58868
H          2.91897        0.36412        1.23167
H          2.98025       -2.08907        1.44529
C          4.60646       -0.42226        0.14513
H          2.65830       -2.29278       -0.27722
H          5.05368       -0.90908        1.02318
H          4.82194       -1.04150       -0.73823
H          5.09418        0.55329        0.00807
