39
M2_solv.log	Energy: -641371.1914295
C          0.63942       -1.66782       -1.12925
N          0.70053       -2.19366        0.22729
C          0.21488       -1.49131        1.25025
C         -0.75326       -1.72280       -1.76318
H          1.28260       -2.31313       -1.73920
N         -0.14254       -2.07495        2.37926
H         -0.17680       -3.08748        2.44197
H         -0.33852       -1.53092        3.21270
H          0.84423       -3.19117        0.35394
N          0.08950       -0.16133        1.09419
C         -0.22554        1.72681       -0.22241
C         -1.21080        1.82077        0.92561
C         -0.81312        0.68399        1.88120
O         -0.18187        2.40926       -1.20881
H         -1.67871        0.08937        2.19908
H         -0.30242        1.06744        2.77613
H         -0.64038       -1.80088       -2.85102
H         -1.31470       -2.58979       -1.39254
O         -1.48828       -0.51752       -1.55103
C         -2.47810       -0.44797       -0.64868
O         -2.78045       -1.36410        0.07924
C          1.23027       -0.25565       -1.15678
C          0.78833        0.58616        0.07021
N          2.04665        1.14408        0.53241
C          3.09446        0.58469       -0.08974
N          2.67654       -0.25867       -1.02869
H          0.93116        0.26011       -2.08103
N          4.35196        0.84579        0.19250
H          2.12748        1.71769        1.36732
H          3.29171       -0.68979       -1.71113
H          5.09792        0.40436       -0.33496
H          4.58697        1.49947        0.93196
H         -1.00191        2.78845        1.40726
C         -3.10318        0.92187       -0.66763
C         -2.69553        1.83186        0.50452
H         -4.19321        0.78719       -0.64179
H         -3.28309        1.58119        1.39883
H         -2.83895        1.39829       -1.61948
H         -2.97404        2.85606        0.22338
