39
M2_1_solv.log	Energy: -641373.4284380
C          0.41618       -1.82230       -0.83033
N          0.33301       -2.09175        0.59712
C          0.05706       -1.12469        1.47588
C         -0.95719       -1.65606       -1.46778
H          0.89406       -2.68696       -1.30693
N         -0.44626       -1.42346        2.66267
H         -0.72671       -2.37665        2.86980
H         -0.46948       -0.73797        3.40953
H          0.20364       -3.05338        0.89754
N          0.30486        0.15763        1.15120
C          0.03990        1.62900       -0.64273
C         -0.89467        2.09756        0.44812
C         -0.46514        1.29550        1.68602
O          0.10125        2.02572       -1.77462
H         -1.31464        0.92889        2.27312
H          0.17206        1.89528        2.34922
H         -0.85974       -1.53837       -2.55560
H         -1.59119       -2.52467       -1.25140
O         -1.54107       -0.47373       -0.92406
C         -2.82417       -0.45976       -0.54703
O         -3.58502       -1.36797       -0.78174
C          1.29596       -0.60077       -1.05604
C          0.98545        0.54393       -0.07225
N          2.31001        1.08057        0.18014
C          3.25607        0.19150       -0.16693
N          2.70571       -0.84418       -0.79980
H          1.15477       -0.22614       -2.08148
N          4.53786        0.33692        0.08288
H          2.47650        1.82560        0.85169
H          3.24822       -1.52047       -1.32894
H          5.20407       -0.35884       -0.23595
H          4.87193        1.14382        0.59945
H         -0.64291        3.15980        0.59026
C         -3.17850        0.76557        0.24762
C         -2.38406        2.05451        0.03890
H         -3.12999        0.44090        1.30160
H         -2.90214        2.82849        0.62108
H         -4.24144        0.96404        0.05402
H         -2.44595        2.37041       -1.01390
