39
M2_3_solv.log	Energy: -641373.0646707
C         -0.60775        1.67287       -1.08107
N         -0.79664        2.19476        0.26541
C         -0.36627        1.50424        1.32559
C          0.83399        1.83006       -1.56513
H         -1.22262        2.27838       -1.75909
N         -0.05611        2.11695        2.45461
H         -0.01748        3.13048        2.49127
H          0.08352        1.59511        3.31320
H         -0.92394        3.19665        0.37713
N         -0.25785        0.16641        1.22958
C          0.27583       -1.65922       -0.10956
C          1.19751       -1.71909        1.08619
C          0.67602       -0.63490        2.03942
O          0.34405       -2.31165       -1.11536
H          1.47792        0.01320        2.41470
H          0.15552       -1.07274        2.90172
H          0.96289        1.35744       -2.54706
H          1.07510        2.89800       -1.64235
O          1.73102        1.26390       -0.61252
C          2.55161        0.25774       -0.95179
O          2.66383       -0.15763       -2.08039
C         -1.14668        0.24315       -1.14282
C         -0.81446       -0.58532        0.12490
N         -2.08949       -1.20164        0.43635
C         -3.08331       -0.67291       -0.29228
N         -2.59798        0.20135       -1.16965
H         -0.73394       -0.26966       -2.02373
N         -4.35263       -0.98681       -0.15339
H         -2.23989       -1.78140        1.25710
H         -3.14933        0.61145       -1.91679
H         -5.05351       -0.56749       -0.75514
H         -4.64180       -1.65679        0.55145
H          1.02481       -2.71538        1.52336
C          3.24953       -0.30404        0.25724
C          2.68755       -1.66419        0.69604
H          3.19832        0.42719        1.07428
H          3.27700       -2.00104        1.55961
H          4.30607       -0.44502       -0.00968
H          2.84369       -2.40290       -0.10468
