62
ZTX_403_solv.log	Energy: -1483141.5910613
C          1.43152        1.22982        0.57573
N          1.54714        1.47685       -0.84158
C          0.92931        0.73074       -1.75599
C          0.31402        1.89369        1.40935
H          2.32189        1.66719        1.03976
N          0.90445        1.10047       -3.02315
H          1.25435        2.01323       -3.29901
H          2.14989        2.23311       -1.15343
N          0.28010       -0.38190       -1.35898
C         -0.85296       -1.50835        0.40833
C         -1.86611       -0.84152       -0.60795
C         -1.02307       -0.77861       -1.88444
O         -0.94729       -2.89352        0.30078
O         -1.00619       -1.09206        1.71534
H         -1.40105       -0.04513       -2.60665
H         -0.97901       -1.76595       -2.36505
O          0.60186        2.15200        2.57450
C          1.44996       -0.26893        0.86440
C          0.57561       -1.08493       -0.10819
N          1.42117       -2.23024       -0.35432
C          2.68325       -2.01838        0.01658
N          2.78026       -0.85469        0.69391
H          1.10895       -0.44123        1.89359
N          3.68634       -2.83435       -0.21261
C          3.87023       -0.47537        1.54868
H          4.63995       -2.47977       -0.08607
H         -1.93661       -1.28977        1.94648
C         -2.45860        0.52909       -0.22457
O          4.70398        0.51137        0.96751
H          3.45732       -0.01009        2.45064
H          4.45848       -1.35666        1.83347
C          5.67910        0.08942        0.14200
O          5.91250       -1.07732       -0.11254
N          6.32755        1.14976       -0.38401
H          6.24878        2.06293        0.05997
O          7.50908        0.90865       -1.02617
H          7.32029        0.98792       -1.97345
H         -3.30434        0.65338       -0.90943
H         -2.89142        0.47119        0.78245
N         -0.90611        2.13374        0.90949
C         -1.63792        1.82361       -0.31693
C         -2.50473        3.10192       -0.38182
C         -2.84925        3.31994        1.08665
O         -1.80281        2.67365        1.82660
H         -0.96695        1.85444       -1.17581
C         -3.66407        3.16607       -1.37312
H         -1.81507        3.90226       -0.69078
H         -2.87801        4.38319        1.36211
H         -3.79703        2.84050        1.37421
O         -4.76621        2.32903       -1.10575
H         -3.98502        4.21992       -1.44303
H         -3.28381        2.88034       -2.36561
H         -5.21927        2.64767       -0.31642
O         -2.92336       -1.75977       -0.87028
S         -4.21899       -1.97717        0.18752
O         -5.21383       -0.98115       -0.20554
O         -4.56643       -3.36219       -0.11361
O         -3.65129       -1.76448        1.53480
H          3.53040       -3.66672       -0.77238
H          0.55837        0.47184       -3.74064
H          1.11553       -3.01914       -0.91526
H         -1.74694       -3.10022       -0.20863
