62
ZTX_34_solv.log	Energy: -1483139.9375864
C          0.98130       -1.98092        0.16570
N          0.53455       -2.30271        1.49774
C         -0.07415       -1.41077        2.27653
C          0.03216       -2.14869       -1.04231
H          1.76282       -2.70427       -0.08863
N         -0.63848       -1.78039        3.41134
H         -0.71201       -2.76435        3.65233
H          0.70572       -3.23641        1.85999
N         -0.15388       -0.13197        1.86095
C         -0.28743        1.27274       -0.08119
C         -1.70323        1.04105        0.58234
C         -1.33956        0.69476        2.02980
O          0.10893        2.59050       -0.02969
O         -0.31530        0.78526       -1.38061
H         -2.13931        0.15288        2.54814
H         -1.10614        1.61335        2.58590
O          0.57840       -2.39226       -2.11260
C          1.59323       -0.58561        0.12683
C          0.71742        0.45721        0.84366
N          1.71830        1.30167        1.44800
C          2.92291        0.73560        1.44924
N          2.87215       -0.47153        0.83800
H          1.74015       -0.29907       -0.92306
N          3.99854        1.26814        1.98388
C          4.01021       -1.28114        0.51971
H          4.92028        0.94669        1.67025
H          0.44312        1.14653       -1.86260
C         -2.58377       -0.03518       -0.08082
O          4.58798       -0.94578       -0.73147
H          4.75154       -1.20837        1.32448
H          3.69496       -2.32511        0.42993
C          5.63072       -0.09192       -0.73273
O          6.10564        0.41949        0.26455
N          6.03661        0.13642       -1.99780
H          5.75495       -0.49026       -2.74925
O          7.23018        0.77604       -2.17383
H          7.01338        1.69395       -2.39763
H         -3.56024        0.11627        0.39542
H         -2.71033        0.20716       -1.14277
N         -1.30244       -2.03101       -0.93694
C         -2.26588       -1.53406        0.04740
C         -3.46583       -2.42565       -0.34180
C         -3.31774       -2.53773       -1.85983
O         -1.96848       -2.14910       -2.15096
H         -1.96266       -1.82083        1.05547
C         -4.83841       -1.97711        0.11912
H         -3.27723       -3.41225        0.10696
H         -3.48894       -3.55924       -2.22719
H         -3.97768       -1.83986       -2.39574
O         -5.74246       -3.01745       -0.18810
H         -4.81198       -1.77158        1.20567
H         -5.13101       -1.04322       -0.39202
H         -6.63316       -2.69932       -0.00330
O         -2.44272        2.25260        0.69367
S         -3.11851        3.10935       -0.55989
O         -4.12681        2.25681       -1.19221
O         -3.64505        4.25686        0.17002
O         -1.97539        3.42128       -1.45000
H          3.92595        2.18689        2.41061
H         -0.97866       -1.08858        4.07090
H          1.52632        2.24269        1.77670
H         -0.54226        3.09688       -0.56843
