62
ZTX_406_solv.log	Energy: -1483139.9075663
C         -1.42149        1.41133       -0.36708
N         -1.33369        1.25422        1.06338
C         -0.64294        0.27050        1.63728
C         -0.39094        2.26544       -1.13647
H         -2.34369        1.96904       -0.56348
N         -0.44230        0.26259        2.94218
H         -0.70998        1.06200        3.50834
H         -1.84746        1.90122        1.65519
N         -0.10892       -0.69255        0.85974
C          0.78533       -1.19197       -1.29409
C          1.91961       -0.89159       -0.24640
C          1.22560       -1.24115        1.07901
O          0.83777       -2.51576       -1.68503
O          0.91351       -0.32643       -2.37005
H          1.70576       -0.77653        1.94616
H          1.18556       -2.32753        1.23178
O         -0.81068        2.80875       -2.15383
C         -1.54792        0.05353       -1.05374
C         -0.56906       -0.99467       -0.49692
N         -1.39424       -2.18200       -0.49907
C         -2.69224       -1.88455       -0.57416
N         -2.85548       -0.57211       -0.84943
H         -1.38178        0.18755       -2.13118
N         -3.67482       -2.74335       -0.43406
C         -4.05547        0.01687       -1.37908
H         -4.62415       -2.37981       -0.29808
H          0.42994       -0.69967       -3.12107
C          2.52365        0.52562       -0.27273
O         -4.76468        0.77222       -0.41411
H         -3.77570        0.73127       -2.16123
H         -4.70113       -0.75727       -1.81197
C         -5.64981        0.11563        0.35874
O         -5.85586       -1.08290        0.30821
N         -6.30046        0.98665        1.15628
H         -5.93177        1.92491        1.29825
O         -7.03373        0.47397        2.18783
H         -7.96108        0.52724        1.91112
H          3.40905        0.41635        0.36505
H          2.88342        0.71732       -1.29279
N          0.88806        2.38129       -0.74745
C          1.77024        1.76012        0.24285
C          2.70175        2.96536        0.50014
C          2.81069        3.59629       -0.88594
O          1.67429        3.12273       -1.62160
H          1.22181        1.56707        1.16688
C          4.04424        2.69131        1.16100
H          2.14162        3.64910        1.15732
H          2.78796        4.69430       -0.85725
H          3.71182        3.26329       -1.42284
O          4.75974        3.88904        1.37501
H          3.88727        2.13516        2.10294
H          4.67716        2.07052        0.51034
H          4.25535        4.43264        1.99268
O          2.98057       -1.76205       -0.61765
S          3.97326       -2.52756        0.50200
O          5.14499       -2.80235       -0.32363
O          4.17193       -1.54226        1.57364
O          3.21378       -3.71447        0.91120
H         -3.46376       -3.70435       -0.18331
H         -0.03716       -0.54680        3.40105
H         -1.03731       -3.08729       -0.20837
H          1.77858       -2.76452       -1.66282
