62
ZTX_100_solv.log	Energy: -1483136.1201450
C         -1.54968        1.39341        0.78190
N         -1.07950        1.49451        2.14198
C         -0.27878        0.58805        2.70024
C         -0.74189        1.99979       -0.38484
H         -2.47179        1.98243        0.72360
N          0.28272        0.81799        3.87283
H          0.20347        1.73103        4.31049
H         -1.38185        2.28714        2.70155
N         -0.00603       -0.54959        2.03015
C          0.27302       -1.48852       -0.15755
C          1.65321       -1.10194        0.49766
C          1.32410       -1.15072        1.99245
O          0.25962       -2.87037       -0.29039
O          0.01420       -0.85070       -1.35274
H          2.03669       -0.58208        2.60107
H          1.29943       -2.19202        2.34214
O         -1.39790        2.35775       -1.35812
C         -1.88117       -0.05354        0.43380
C         -0.81226       -1.04430        0.91432
N         -1.63448       -2.15922        1.32488
C         -2.91812       -1.82141        1.45831
N         -3.11267       -0.54182        1.06746
H         -1.97894       -0.15044       -0.65597
N         -3.83843       -2.63552        1.91995
C         -4.37906        0.00461        0.64720
H         -4.80747       -2.35292        2.01651
H          0.76761       -1.09004       -1.93326
C          2.26119        0.25781        0.08267
O         -4.48337       -0.10132       -0.75839
H         -5.20531       -0.54906        1.10332
H         -4.45585        1.05481        0.95090
C         -4.49177        1.03996       -1.47677
O         -4.71706        2.14168       -1.02077
N         -4.28637        0.80310       -2.79632
H         -4.05445        1.61656       -3.36334
O         -3.64996       -0.34971       -3.18153
H         -4.33261       -0.91474       -3.57253
H          3.26334        0.20711        0.52584
H          2.40163        0.27240       -1.00586
N          0.59555        2.09367       -0.35554
C          1.67980        1.61508        0.50246
C          2.67919        2.77087        0.26960
C          2.43593        3.13082       -1.19689
O          1.15728        2.57253       -1.53096
H          1.37421        1.65030        1.54896
C          4.13381        2.50814        0.60689
H          2.34110        3.60606        0.90078
H          2.41291        4.21584       -1.36839
H          3.17601        2.66945       -1.86729
O          4.82099        3.73349        0.46428
H          4.20813        2.11954        1.63982
H          4.55447        1.74427       -0.07007
H          5.76502        3.55558        0.54075
O          2.62212       -2.11152        0.27616
S          3.34858       -2.33294       -1.20778
O          4.56689       -1.51803       -1.15753
O          3.57529       -3.77505       -1.20830
O          2.37301       -1.86169       -2.21568
H         -3.58172       -3.57764        2.19908
H          0.77462        0.08006        4.36630
H         -1.24045       -3.03164        1.66665
H         -0.54478       -3.11196       -0.77138
