62
ZTX_399_solv.log	Energy: -1483141.9061714
C          1.60961        0.78686        0.70364
N          1.75600        1.15099       -0.68485
C          1.04520        0.57803       -1.65432
C          0.58620        1.50592        1.60471
H          2.55281        1.06967        1.18380
N          1.07030        1.05696       -2.88417
H          1.54143        1.93419       -3.08348
H          2.50729        1.78945       -0.93483
N          0.24955       -0.46516       -1.34396
C         -1.01246       -1.57391        0.34913
C         -1.93216       -0.69946       -0.59448
C         -1.09803       -0.63642       -1.87711
O         -1.30215       -2.92088        0.14902
O         -1.09097       -1.23326        1.68456
H         -1.38012        0.20362       -2.52309
H         -1.19050       -1.57419       -2.44288
O          0.88636        1.59298        2.79117
C          1.45459       -0.72181        0.84826
C          0.45581       -1.31436       -0.16655
N          1.11834       -2.54312       -0.53399
C          2.40370       -2.54346       -0.18711
N          2.69232       -1.45612        0.55421
H          1.12291       -0.95670        1.86763
N          3.25968       -3.48488       -0.51590
C          3.91940       -1.29894        1.29324
H          4.23355       -3.43812       -0.23587
H         -2.03711       -1.31497        1.92149
C         -2.33139        0.70229       -0.09684
O          4.99294       -0.93322        0.44874
H          3.76230       -0.55687        2.08472
H          4.21764       -2.25101        1.75040
C          5.22928        0.37979        0.24101
O          4.64576        1.28635        0.79696
N          6.24775        0.52163       -0.63589
H          6.51869       -0.25581       -1.23455
O          6.45245        1.76695       -1.16034
H          7.21959        2.13211       -0.69419
H         -3.13701        0.97785       -0.78670
H         -2.77756        0.63257        0.90327
N         -0.56716        1.99793        1.12588
C         -1.34193        1.87370       -0.10612
C         -2.04219        3.25296       -0.07287
C         -2.28472        3.46327        1.41987
O         -1.38957        2.56574        2.09177
H         -0.68193        1.87007       -0.97286
C         -3.27980        3.40497       -0.93073
H         -1.29342        3.98045       -0.41991
H         -2.07392        4.49332        1.73965
H         -3.30617        3.18791        1.72121
O         -2.93235        3.08374       -2.26098
H         -4.08975        2.75343       -0.55735
H         -3.64040        4.44590       -0.84752
H         -3.73643        3.09629       -2.79241
O         -3.10627       -1.44202       -0.90981
S         -4.41311       -1.54820        0.15224
O         -5.24927       -0.38484       -0.14058
O         -4.96833       -2.83591       -0.25020
O         -3.80779       -1.53268        1.49928
H          2.95448       -4.26875       -1.08407
H          0.64976        0.54158       -3.65076
H          0.67748       -3.25075       -1.11281
H         -2.12443       -2.97808       -0.36314
