62
ZTX_108_solv.log	Energy: -1483136.4048712
C         -1.49750        1.37957        0.72056
N         -1.02500        1.50532        2.07764
C         -0.22836        0.60420        2.65059
C         -0.68773        1.95884       -0.45799
H         -2.42036        1.96673        0.64695
N          0.32804        0.84850        3.82267
H          0.24809        1.76679        4.24899
H         -1.33072        2.30391        2.62679
N          0.04762       -0.54296        1.99721
C          0.33853       -1.48376       -0.18979
C          1.71572       -1.09496        0.47265
C          1.37991       -1.13990        1.96667
O          0.33159       -2.86457       -0.33287
O          0.07946       -0.83843       -1.38105
H          2.08793       -0.56780        2.57724
H          1.35618       -2.18024        2.31927
O         -1.33943        2.28098       -1.44591
C         -1.83414       -0.07296        0.40919
C         -0.75035       -1.05078        0.88039
N         -1.55832       -2.17639        1.29107
C         -2.83661       -1.83808        1.47057
N         -3.03690       -0.55470        1.10061
H         -1.96954       -0.18878       -0.67533
N         -3.74594       -2.65427        1.94951
C         -4.32008        0.03279        0.82555
H         -4.71841       -2.38159        2.04082
H          0.83501       -1.06973       -1.96151
C          2.32538        0.26371        0.05719
O         -4.61432       -0.07323       -0.55350
H         -5.09945       -0.49204        1.38688
H         -4.32205        1.08485        1.13194
C         -4.63039        1.06228       -1.28228
O         -4.56360        2.18403       -0.81970
N         -4.69878        0.81053       -2.60798
H         -4.95554        1.58064       -3.22179
O         -5.01077       -0.43979       -3.06768
H         -4.17732       -0.82649       -3.37632
H          3.32136        0.22032        0.51517
H          2.48128        0.27024       -1.02919
N          0.64771        2.07798       -0.41542
C          1.73177        1.62179        0.45523
C          2.72231        2.78208        0.20921
C          2.48214        3.11804       -1.26390
O          1.21428        2.53515       -1.59758
H          1.42111        1.66969        1.49962
C          4.17730        2.53695        0.55793
H          2.37431        3.62371        0.82627
H          2.44394        4.20026       -1.45012
H          3.23270        2.65885       -1.92396
O          4.85446        3.76638        0.40310
H          4.24900        2.16299        1.59643
H          4.60856        1.76771       -0.10621
H          5.79921        3.59862        0.49260
O          2.68598       -2.10432        0.25793
S          3.41746       -2.32795       -1.22364
O          4.63851       -1.51752       -1.16705
O          3.63909       -3.77092       -1.22410
O          2.44802       -1.85231       -2.23529
H         -3.48304       -3.59762        2.21848
H          0.81785        0.11693        4.32742
H         -1.15477       -3.05547        1.60286
H         -0.46734       -3.10586       -0.82312
