62
ZTX_377_solv.log	Energy: -1483136.9365349
C         -1.44746        1.61838        1.07398
N         -0.90133        1.65073        2.40956
C          0.00136        0.77075        2.84167
C         -0.69726        2.37584       -0.04604
H         -2.39593        2.16321        1.11168
N          0.66593        0.98442        3.96230
H          0.57982        1.87319        4.44613
H         -1.17980        2.40836        3.02684
N          0.25473       -0.31394        2.08738
C          0.31752       -1.39786       -0.05265
C          1.77052       -1.02219        0.46604
C          1.55824       -0.95334        1.98134
O          0.14221       -2.76110       -0.06467
O          0.01754       -0.91761       -1.32176
H          2.33404       -0.36425        2.48504
H          1.54292       -1.96789        2.40371
O         -1.26723        3.26977       -0.63109
C         -1.73593        0.18114        0.62935
C         -0.66270       -0.83669        1.08400
N         -1.47952       -1.89573        1.63198
C         -2.77215       -1.59141        1.66989
N         -2.97858       -0.33653        1.21497
H         -1.81507        0.14480       -0.46499
N         -3.70792       -2.40610        2.10019
C         -4.26975        0.15639        0.82529
H         -4.68845       -2.14727        2.08770
H          0.20279        0.03315       -1.37884
C          2.37805        0.27670       -0.09322
O         -4.70738       -0.37949       -0.41049
H         -5.01607       -0.13866        1.57006
H         -4.23846        1.24986        0.77640
C         -4.38237        0.30431       -1.53198
O         -3.72611        1.32347       -1.54998
N         -4.86043       -0.35061       -2.61356
H         -5.60262       -1.03889       -2.50508
O         -4.85293        0.31995       -3.80472
H         -4.10717       -0.03876       -4.30912
H          3.40450        0.29023        0.29583
H          2.45872        0.19804       -1.18564
N          0.48602        1.82367       -0.51414
C          1.72226        1.60952        0.26073
C          2.53411        2.85243       -0.16360
C          2.07884        3.08809       -1.60182
O          0.86673        2.33015       -1.75375
H          1.52042        1.70750        1.32941
C          4.03810        2.76022        0.00266
H          2.17999        3.68497        0.46296
H          1.87207        4.14607       -1.81372
H          2.79608        2.69812       -2.33874
O          4.57342        4.02753       -0.31481
H          4.27679        2.46913        1.04242
H          4.44820        1.98302       -0.66586
H          5.53383        3.94895       -0.33235
O          2.69729       -2.08736        0.29130
S          3.27088       -2.67415       -1.15454
O          3.89894       -1.56430       -1.87374
O          4.18826       -3.69825       -0.66885
O          2.06733       -3.20570       -1.83609
H         -3.45502       -3.32587        2.44813
H          1.22666        0.25076        4.38308
H         -1.10846       -2.82314        1.81466
H          0.77106       -3.12029       -0.73255
