62
ZTX_422_solv.log	Energy: -1483137.6337104
C          0.92937       -2.16932        0.45615
N          0.46191       -2.35498        1.80883
C         -0.22077       -1.41877        2.46675
C         -0.00901       -2.53649       -0.71761
H          1.74439       -2.88387        0.31072
N         -0.85003       -1.70496        3.59119
H         -0.90891       -2.66576        3.91509
H          0.62248       -3.25149        2.25920
N         -0.29883       -0.18802        1.93219
C         -0.27459        1.27080        0.02777
C         -1.73934        1.07660        0.61250
C         -1.45314        0.68627        2.06491
O          0.16102        2.55894        0.23084
O         -0.14995        0.98854       -1.32654
H         -2.29560        0.16104        2.53102
H         -1.21374        1.58264        2.65434
O          0.36901       -3.35843       -1.52415
C          1.48072       -0.75431        0.24469
C          0.64436        0.34075        0.95581
N          1.67249        1.12192        1.60458
C          2.88676        0.59716        1.47229
N          2.82089       -0.58393        0.81875
H          1.52818       -0.53588       -0.83176
N          3.98738        1.14556        1.93525
C          3.96057       -1.30868        0.33863
H          4.89451        0.85381        1.55584
H         -0.52207        0.11618       -1.52932
C         -2.62448        0.03903       -0.09980
O          4.43109       -0.82274       -0.90856
H          4.75888       -1.28389        1.09023
H          3.67759       -2.35055        0.16282
C          5.48045        0.02295       -0.89937
O          6.03782        0.42139        0.10717
N          5.78937        0.38596       -2.15970
H          5.44530       -0.15520       -2.95055
O          6.96685        1.04771       -2.35835
H          6.73426        1.98103       -2.47947
H         -3.60632        0.13919        0.38091
H         -2.75954        0.33678       -1.14813
N         -1.10005       -1.71989       -0.95660
C         -2.22447       -1.43428       -0.04843
C         -3.28866       -2.39641       -0.61910
C         -2.98696       -2.37307       -2.11428
O         -1.63681       -1.89482       -2.23096
H         -1.99094       -1.77244        0.96324
C         -4.73794       -2.09286       -0.25962
H         -3.05221       -3.39487       -0.22138
H         -3.05675       -3.36594       -2.57930
H         -3.63152       -1.66600       -2.65848
O         -5.60214       -3.13950       -0.64590
H         -4.82509       -1.99124        0.83283
H         -5.05377       -1.13582       -0.71008
H         -5.68466       -3.12284       -1.60687
O         -2.44617        2.30640        0.71700
S         -2.98754        3.24834       -0.54069
O         -3.87231        2.42679       -1.36892
O         -3.64588        4.31507        0.20425
O         -1.75082        3.66549       -1.24210
H          3.92436        2.05071        2.39178
H         -1.22172       -0.96828        4.18192
H          1.50690        2.07951        1.89972
H         -0.42619        3.14322       -0.30261
