62
ZTX_306_solv.log	Energy: -1483135.6187901
C         -1.54792        1.06516        1.11396
N         -0.87008        0.77989        2.35408
C          0.08527       -0.14230        2.45268
C         -0.98180        2.12553        0.14164
H         -2.50747        1.52310        1.37590
N          0.81128       -0.24245        3.55140
H          0.72751        0.45272        4.28693
H         -1.14869        1.28787        3.18888
N          0.33795       -0.94069        1.39535
C          0.31388       -1.01494       -0.99218
C          1.74620       -0.67520       -0.43379
C          1.69227       -1.28821        0.97517
O          0.32397       -2.24581       -1.61954
O         -0.09967       -0.00125       -1.84324
H          2.43918       -0.86258        1.65308
H          1.82469       -2.37723        0.93684
O         -1.80133        2.67906       -0.58248
C         -1.83206       -0.22739        0.36189
C         -0.60245       -1.14780        0.29114
N         -1.22481       -2.44692        0.38167
C         -2.46407       -2.37486        0.86064
N         -2.83101       -1.08159        1.02275
H         -2.17166        0.01633       -0.65455
N         -3.21024       -3.42109        1.13086
C         -4.19100       -0.66901        1.22322
H         -4.17772       -3.32786        1.42047
H         -0.82115       -0.33874       -2.39342
C          2.14709        0.81084       -0.45241
O         -4.95137       -0.74928        0.03218
H         -4.67193       -1.32737        1.95460
H         -4.20513        0.35236        1.61829
C         -5.13443        0.39074       -0.67297
O         -4.69318        1.47426       -0.36207
N         -5.92731        0.13292       -1.74093
H         -6.01985       -0.82589       -2.07101
O         -5.96866        1.08561       -2.72274
H         -6.82846        1.52313       -2.63527
H          3.22908        0.78664       -0.28585
H          1.99862        1.18581       -1.47385
N          0.32304        2.44531        0.11446
C          1.57627        1.82356        0.54782
C          2.42529        3.10858        0.68937
C          1.91394        3.96759       -0.46675
O          0.64427        3.40978       -0.83563
H          1.46523        1.41112        1.55144
C          3.93537        2.96139        0.78255
H          2.10286        3.56930        1.63425
H          1.77934        5.01991       -0.17823
H          2.56253        3.90705       -1.35024
O          4.50453        2.70244       -0.48291
H          4.34565        3.89507        1.20683
H          4.16455        2.15171        1.49826
H          5.41480        2.41608       -0.34814
O          2.63527       -1.32271       -1.33512
S          4.08138       -2.02563       -0.84927
O          3.69612       -3.35770       -0.36893
O          4.81930       -2.01666       -2.10824
O          4.60755       -1.13902        0.19782
H         -2.82642       -4.35440        1.01878
H          1.44459       -1.02398        3.68539
H         -0.72588       -3.31070        0.19233
H          1.21624       -2.34896       -1.99546
