62
ZTX_244_solv.log	Energy: -1483139.5300127
C         -1.34777        1.73489        0.41027
N         -0.78001        2.16144        1.66669
C          0.04436        1.39737        2.38093
C         -0.60094        2.01218       -0.91381
H         -2.25600        2.32826        0.25962
N          0.69268        1.89236        3.41902
H          0.65091        2.88615        3.62500
H         -1.03405        3.07632        2.02872
N          0.25058        0.12308        1.99355
C          0.28793       -1.40382        0.15921
C          1.73858       -0.90598        0.54177
C          1.56162       -0.51923        2.01336
O          0.17555       -2.76034        0.45105
O         -0.07346       -1.13790       -1.14597
H          2.33869        0.17041        2.36439
H          1.55920       -1.41538        2.64959
O         -1.30385        2.18690       -1.90284
C         -1.75410        0.26641        0.47879
C         -0.67474       -0.61794        1.13295
N         -1.48524       -1.52019        1.91320
C         -2.73544       -1.09183        2.05165
N         -2.93086        0.03847        1.33272
H         -1.95216       -0.10293       -0.53556
N         -3.63995       -1.69753        2.78659
C         -4.23910        0.51897        0.98524
H         -4.59904       -1.37127        2.83069
H          0.61182       -1.56221       -1.70078
C          2.33214        0.24451       -0.29236
O         -4.86692       -0.30285        0.01833
H         -4.88263        0.50715        1.87152
H         -4.16267        1.54954        0.62318
C         -4.77959        0.07438       -1.27754
O         -4.19837        1.06056       -1.67149
N         -5.48525       -0.79158       -2.04405
H         -5.69895       -1.71844       -1.68057
O         -5.27043       -0.73744       -3.39439
H         -6.04906       -0.30061       -3.77011
H          3.38874        0.22784       -0.00343
H          2.29153       -0.00821       -1.35952
N          0.73944        2.05303       -0.98267
C          1.86234        1.69393       -0.12141
C          2.88873        2.72259       -0.64953
C          2.57250        2.75945       -2.14122
O          1.23275        2.26032       -2.26679
H          1.65090        1.95898        0.91349
C          4.34702        2.46323       -0.31224
H          2.60254        3.68784       -0.20321
H          2.61956        3.77441       -2.55949
H          3.22641        2.09258       -2.72297
O          4.54109        2.27764        1.07358
H          4.70779        1.55226       -0.81245
H          4.95432        3.30093       -0.69791
H          4.26787        3.08610        1.52480
O          2.62872       -2.01732        0.51780
S          3.28767       -2.60927       -0.91882
O          4.49042       -1.81211       -1.15569
O          3.52208       -3.99835       -0.54011
O          2.22677       -2.41618       -1.92806
H         -3.38538       -2.52282        3.32029
H          1.20274        1.28203        4.04941
H         -1.10709       -2.35630        2.34787
H          1.06570       -3.10590        0.62375
