62
ZTX_132_solv.log	Energy: -1483139.1253883
C          1.05638       -1.91473        0.26348
N          0.61404       -2.20429        1.60564
C         -0.00393       -1.30475        2.36946
C          0.12029       -2.14400       -0.94369
H          1.85375       -2.62957        0.03543
N         -0.55830       -1.66113        3.51349
H         -0.61723       -2.64139        3.77294
H          0.79777       -3.12675        1.98996
N         -0.10154       -0.03396        1.93338
C         -0.24621        1.36306       -0.00688
C         -1.66257        1.09204        0.63322
C         -1.30412        0.77865        2.08887
O          0.00954        2.72185        0.12647
O         -0.12695        0.94147       -1.31450
H         -2.09385        0.22539        2.61050
H         -1.08956        1.70721        2.63616
O          0.67637       -2.42483       -1.99998
C          1.63775       -0.50734        0.17979
C          0.76148        0.53589        0.89855
N          1.76585        1.39292        1.48200
C          2.97599        0.83664        1.47575
N          2.93288       -0.36579        0.85844
H          1.74790       -0.22662       -0.87575
N          4.04970        1.37726        2.00597
C          4.08354       -1.13862        0.49895
H          4.97301        1.06463        1.68743
H         -0.84018        1.41202       -1.79575
C         -2.50876       -0.03361       -0.00626
O          4.63020       -0.75205       -0.75218
H          4.83778       -1.07100        1.29205
H          3.79097       -2.18650        0.38486
C          5.67569        0.08797       -0.74136
O          6.16488        0.56889        0.26905
N          6.17022        0.31426       -1.97474
H          6.81971        1.08933       -2.09153
O          5.44906       -0.02656       -3.08500
H          5.85147       -0.83851       -3.42837
H         -3.48223        0.10673        0.47902
H         -2.65614        0.18336       -1.07210
N         -1.21297       -2.01711       -0.85391
C         -2.17572       -1.52558        0.13155
C         -3.37282       -2.42699       -0.24953
C         -3.22703       -2.55133       -1.76621
O         -1.87727       -2.16892       -2.06387
H         -1.86331       -1.80554        1.13867
C         -4.75839       -1.98491        0.19832
H         -3.17438       -3.40889        0.20795
H         -3.40130       -3.57485       -2.12601
H         -3.88709       -1.85647       -2.30618
O         -5.73528       -2.93426       -0.17058
H         -4.75628       -1.80444        1.28881
H         -5.04398       -1.04427       -0.29513
H         -5.53237       -3.76131        0.28371
O         -2.43931        2.27613        0.66284
S         -3.14939        2.90204       -0.70971
O         -4.48538        2.29984       -0.75587
O         -3.13200        4.33223       -0.41732
O         -2.28573        2.49377       -1.83997
H          3.97279        2.29580        2.43260
H         -0.90493       -0.96182        4.16165
H          1.55220        2.29440        1.89831
H          0.82222        2.91622       -0.36243
