62
ZTX_160_solv.log	Energy: -1483139.3240201
C          1.05555       -1.91585        0.24457
N          0.61380       -2.21484        1.58485
C         -0.00664       -1.32125        2.35362
C          0.11823       -2.13761       -0.96320
H          1.85283       -2.62908        0.01117
N         -0.56248       -1.68576        3.49431
H         -0.62091       -2.66777        3.74725
H          0.79666       -3.14025        1.96245
N         -0.10508       -0.04788        1.92525
C         -0.24675        1.36310       -0.00490
C         -1.66407        1.08722        0.63102
C         -1.30750        0.76410        2.08504
O          0.00820        2.72096        0.13832
O         -0.12515        0.95053       -1.31525
H         -2.09818        0.20795        2.60222
H         -1.09317        1.68897        2.63865
O          0.67285       -2.40962       -2.02246
C          1.63715       -0.50807        0.17101
C          0.75959        0.52969        0.89606
N          1.76263        1.38265        1.48756
C          2.97244        0.82553        1.48123
N          2.93114       -0.37111        0.85282
H          1.74859       -0.22006       -0.88241
N          4.04437        1.36075        2.02041
C          4.08281       -1.14182        0.49218
H          4.96894        1.04989        1.70346
H         -0.83724        1.42476       -1.79457
C         -2.50820       -0.03460       -0.01774
O          4.63822       -0.74299       -0.75125
H          4.83221       -1.08379        1.29067
H          3.78927       -2.18792        0.36515
C          5.68638        0.09338       -0.72478
O          6.16944        0.56340        0.29375
N          6.19080        0.32949       -1.95211
H          6.84514        1.10208       -2.05745
O          5.47925       -0.00183       -3.07124
H          5.88149       -0.81360       -3.41526
H         -3.48482        0.10568        0.46111
H         -2.64825        0.18551       -1.08389
N         -1.21549       -2.01750       -0.86917
C         -2.17639       -1.52712        0.11830
C         -3.37268       -2.42888       -0.26015
C         -3.23225       -2.54894       -1.77793
O         -1.88259       -2.16712       -2.07812
H         -1.86345       -1.80839        1.12470
C         -4.74565       -1.98424        0.20385
H         -3.17618       -3.41161        0.19367
H         -3.40833       -3.57139       -2.13983
H         -3.89309       -1.85151       -2.31351
O         -5.64662       -3.02947       -0.09502
H         -4.71580       -1.77331        1.28932
H         -5.04407       -1.05398       -0.31058
H         -6.53827       -2.71140        0.08536
O         -2.44125        2.27086        0.66719
S         -3.14982        2.90500       -0.70233
O         -2.28412        2.50489       -1.83393
O         -4.48523        2.30191       -0.75457
O         -3.13427        4.33325       -0.40050
H          3.96629        2.27542        2.45506
H         -0.91223       -0.99116        4.14586
H          1.54747        2.27939        1.91321
H          0.82245        2.91900       -0.34647
