62
ZTX_90_solv.log	Energy: -1483139.1875306
C          0.95072       -1.99404       -0.07503
N          0.48311       -2.44978        1.21141
C         -0.14886       -1.65434        2.07297
C          0.03359       -2.06281       -1.31737
H          1.74850       -2.68008       -0.37776
N         -0.72998       -2.15333        3.14874
H         -0.80402       -3.15847        3.27414
H          0.65196       -3.41696        1.47376
N         -0.23064       -0.33665        1.80281
C         -0.32269        1.30398        0.05786
C         -1.75516        0.96726        0.62599
C         -1.43288        0.45848        2.03425
O         -0.06208        2.63045        0.37839
O         -0.17576        1.05984       -1.29134
H         -2.24015       -0.15106        2.45795
H         -1.22848        1.30423        2.70555
O          0.60412       -2.22015       -2.39175
C          1.54262       -0.59280        0.03318
C          0.65881        0.35364        0.86739
N          1.65676        1.11458        1.58023
C          2.86243        0.55028        1.52777
N          2.82756       -0.55192        0.74503
H          1.67108       -0.17665       -0.97445
N          3.92245        1.00273        2.15798
C          3.97961       -1.28101        0.30491
H          4.85616        0.72092        1.84086
H         -0.87189        1.60103       -1.72140
C         -2.58895       -0.05294       -0.18216
O          4.59570       -0.70207       -0.83431
H          4.69887       -1.37536        1.12734
H          3.66889       -2.28400       -0.00154
C          5.66695        0.09047       -0.63389
O          6.11767        0.38009        0.45918
N          6.13341        0.54084       -1.81641
H          5.87237        0.06890       -2.68019
O          7.35846        1.14498       -1.82070
H          7.18877        2.09630       -1.89487
H         -3.58478        0.05045        0.26592
H         -2.68272        0.29411       -1.21902
N         -1.29887       -1.93169       -1.23161
C         -2.26933       -1.55367       -0.20617
C         -3.45581       -2.41337       -0.70471
C         -3.32589       -2.27897       -2.21718
O         -1.95118       -1.94591       -2.46027
H         -1.97445       -1.94689        0.76671
C         -4.84055       -2.09710       -0.16353
H         -3.21709       -3.44882       -0.41877
H         -3.56815       -3.21032       -2.74732
H         -3.94180       -1.45886       -2.61712
O         -4.93170       -2.29899        1.23027
H         -5.15249       -1.07703       -0.44916
H         -5.55612       -2.78761       -0.63439
H         -4.46732       -1.58224        1.67862
O         -2.52165        2.14563        0.79832
S         -3.18811        2.96246       -0.49289
O         -3.14406        4.34294       -0.01985
O         -2.31263        2.68125       -1.65248
O         -4.53601        2.40359       -0.63778
H          3.83482        1.85110        2.70961
H         -1.08918       -1.54181        3.87449
H          1.43695        1.94759        2.11836
H          0.75874        2.88719       -0.06577
