62
ZTX_175_solv.log	Energy: -1483140.9626670
C          1.38793        1.23147        0.65857
N          1.49906        1.52697       -0.74815
C          0.90984        0.78219       -1.68143
C          0.23200        1.82326        1.49717
H          2.25596        1.69101        1.14337
N          0.87475        1.18146       -2.93949
H          1.18994        2.11385       -3.19026
H          2.07948        2.30928       -1.03714
N          0.29930       -0.36023       -1.31125
C         -0.85460       -1.47768        0.47068
C         -1.85118       -0.88212       -0.60106
C         -0.97591       -0.80095       -1.85517
O         -0.89655       -2.85273        0.51915
O         -1.12532       -0.90114        1.70483
H         -1.36511       -0.09414       -2.59735
H         -0.88904       -1.79533       -2.31485
O          0.48647        2.02315        2.68040
C          1.46420       -0.27487        0.90074
C          0.58614       -1.08185       -0.07109
N          1.42707       -2.22676       -0.33118
C          2.69809       -1.99469        0.00104
N          2.79905       -0.82950        0.67837
H          1.16515       -0.47602        1.93808
N          3.70642       -2.79310       -0.26164
C          3.90604       -0.44466        1.51014
H          4.65823       -2.42565       -0.15814
H         -0.70291       -1.43695        2.39199
C         -2.49816        0.46904       -0.23799
O          4.71292        0.55568        0.91590
H          3.51005        0.00828        2.42586
H          4.51062       -1.32115        1.77413
C          5.67409        0.14956        0.06599
O          5.91472       -1.01311       -0.20030
N          6.29837        1.21966       -0.46952
H          6.21895        2.12993       -0.01971
O          7.47001        0.99421       -1.13541
H          7.26136        1.06934       -2.07883
H         -3.28807        0.57274       -0.99169
H         -3.00074        0.37751        0.73235
N         -0.98131        2.08000        0.97951
C         -1.70494        1.78710       -0.25947
C         -2.62492        3.02825       -0.27984
C         -2.92367        3.24363        1.20375
O         -1.90573        2.52660        1.91558
H         -1.03236        1.86787       -1.11451
C         -3.85672        2.96240       -1.16067
H         -2.00855        3.86441       -0.64229
H         -2.89045        4.30309        1.49331
H         -3.89156        2.81267        1.49988
O         -4.44255        4.24703       -1.15867
H         -3.56176        2.65337       -2.18100
H         -4.56749        2.21089       -0.77474
H         -5.28231        4.18916       -1.62821
O         -2.87026       -1.81191       -0.95396
S         -4.12826       -2.30609        0.01315
O         -4.75193       -3.29121       -0.86326
O         -3.46889       -2.88068        1.20930
O         -4.94911       -1.13121        0.31292
H          3.54730       -3.62705       -0.81836
H          0.55142        0.56083       -3.67409
H          1.13021       -2.99803       -0.92139
H         -1.80481       -3.08973        0.81656
