62
ZTX_449_solv.log	Energy: -1483135.2799161
C         -1.23414        1.60228        0.88760
N         -0.58522        1.42515        2.16357
C          0.24601        0.41296        2.40480
C         -0.53668        2.40283       -0.23606
H         -2.11854        2.22341        1.06549
N          0.96814        0.38223        3.51040
H          0.97752        1.18163        4.13670
H         -0.78637        2.08330        2.91121
N          0.37913       -0.55150        1.47461
C          0.28730       -1.01448       -0.87320
C          1.77346       -0.85459       -0.34427
C          1.64859       -1.19453        1.15397
O          0.06571       -2.25190       -1.44649
O         -0.08167       -0.03851       -1.77926
H          2.46659       -0.77729        1.75198
H          1.58536       -2.27313        1.34059
O         -1.28159        2.97443       -1.02390
C         -1.70085        0.25770        0.33909
C         -0.60276       -0.81415        0.42270
N         -1.38132       -1.99112        0.72833
C         -2.59073       -1.68054        1.18998
N         -2.79535       -0.34568        1.11623
H         -2.01002        0.38155       -0.70594
N         -3.45171       -2.56243        1.64416
C         -4.08953        0.25647        1.26463
H         -4.40052       -2.30721        1.89760
H          0.49496       -0.10071       -2.55421
C          2.40788        0.53744       -0.55810
O         -4.96101       -0.04845        0.18945
H         -4.57531       -0.13288        2.16575
H         -3.97059        1.33962        1.37245
C         -4.93334        0.77224       -0.87587
O         -4.20636        1.74094       -0.97838
N         -5.77749        0.36890       -1.85352
H         -5.99157        1.04098       -2.58775
O         -6.77609       -0.52691       -1.57674
H         -6.49020       -1.37088       -1.95697
H          3.45612        0.35966       -0.28619
H          2.39872        0.75702       -1.63539
N          0.80082        2.47300       -0.35052
C          1.96523        1.79008        0.21377
C          2.98091        2.94984        0.10112
C          2.56358        3.62980       -1.20297
O          1.22890        3.17743       -1.46972
H          1.81285        1.59822        1.27632
C          4.45998        2.60232        0.17297
H          2.75927        3.62846        0.93958
H          2.56795        4.72621       -1.12860
H          3.18699        3.31901       -2.05432
O          5.25943        3.76359        0.10404
H          4.66049        2.02350        1.09289
H          4.75418        1.97885       -0.68370
H          5.06499        4.30720        0.87745
O          2.62423       -1.69384       -1.11605
S          3.14955       -3.18742       -0.63088
O          3.89512       -3.61914       -1.80516
O          3.94233       -2.96558        0.58052
O          1.89525       -3.94322       -0.38400
H         -3.18971       -3.54270        1.68549
H          1.49429       -0.44662        3.76698
H         -0.99513       -2.93083        0.72270
H          0.65224       -2.94197       -1.06409
