62
ZTX_443_solv.log	Energy: -1483143.3606505
C          1.36663        1.22057        0.60250
N          1.46869        1.53463       -0.80210
C          0.84738        0.82928       -1.74632
C          0.24936        1.83133        1.47365
H          2.25626        1.64510        1.07941
N          0.80058        1.26578       -2.99155
H          1.13507        2.19667       -3.22197
H          2.05700        2.31447       -1.08163
N          0.21967       -0.31063       -1.39763
C         -0.87976       -1.54900        0.31763
C         -1.90805       -0.84575       -0.66116
C         -1.07118       -0.72566       -1.93711
O         -0.88265       -2.92534        0.12565
O         -1.04560       -1.18531        1.64246
H         -1.46829        0.01818       -2.63816
H         -1.00111       -1.69881       -2.44249
O          0.54281        2.03858        2.64732
C          1.39978       -0.28939        0.82547
C          0.53944       -1.07080       -0.18814
N          1.41147       -2.17904       -0.50491
C          2.66524       -1.97301       -0.10509
N          2.73758       -0.85123        0.64102
H          1.05353       -0.50933        1.84345
N          3.68257       -2.76018       -0.37036
C          3.81627       -0.49857        1.52069
H          4.63064       -2.40247       -0.21272
H         -1.99162       -1.31370        1.85723
C         -2.51166        0.51429       -0.23716
O          4.64543        0.52073        0.99050
H          3.39011       -0.07694        2.43770
H          4.41104       -1.38522        1.77264
C          5.64647        0.14341        0.17440
O          5.90463       -1.01013       -0.11439
N          6.28991        1.23118       -0.29904
H          6.18466        2.12724        0.17333
O          7.49145        1.03093       -0.91786
H          7.32585        1.14013       -1.86646
H         -3.32186        0.64043       -0.96699
H         -2.99217        0.41041        0.74247
N         -0.98008        2.07016        0.99578
C         -1.70756        1.82109       -0.24710
C         -2.60473        3.07815       -0.23880
C         -2.91162        3.25285        1.24678
O         -1.88156        2.53675        1.94397
H         -1.03755        1.91117       -1.10224
C         -3.82586        3.06632       -1.13619
H         -1.96707        3.91210       -0.56854
H         -2.89505        4.30431        1.56426
H         -3.87440        2.79974        1.52703
O         -4.38069        4.36423       -1.10430
H         -3.52377        2.77935       -2.16081
H         -4.55983        2.32165       -0.78208
H         -5.21305        4.34241       -1.58963
O         -3.00170       -1.70219       -0.98046
S         -4.00940       -2.36640        0.16343
O         -3.76637       -1.62187        1.41495
O         -5.33259       -2.20085       -0.41629
O         -3.52670       -3.75886        0.23703
H          3.54378       -3.56207       -0.97718
H          0.45753        0.67094       -3.73846
H          1.12345       -2.94194       -1.10910
H         -1.77800       -3.31030        0.21461
