62
ZTX_111_solv.log	Energy: -1483140.1457501
C         -1.43757        1.39434       -0.39391
N         -1.35449        1.24482        1.03777
C         -0.66198        0.26676        1.61937
C         -0.40956        2.25125       -1.16342
H         -2.36246        1.94521       -0.59661
N         -0.46828        0.26500        2.92529
H         -0.74088        1.06603        3.48682
H         -1.87691        1.89014        1.62389
N         -0.11901       -0.69727        0.84893
C          0.78781       -1.20084       -1.29900
C          1.91587       -0.88801       -0.24788
C          1.21826       -1.23632        1.07598
O          0.85093       -2.52633       -1.68267
O          0.91507       -0.33962       -2.37840
H          1.69225       -0.76549        1.94325
H          1.18467       -2.32236        1.23265
O         -0.82826        2.78782       -2.18471
C         -1.55437        0.03193       -1.07301
C         -0.57091       -1.00787       -0.50868
N         -1.38902       -2.20032       -0.50925
C         -2.68858       -1.90941       -0.58258
N         -2.85857       -0.59933       -0.86459
H         -1.38888        0.16022       -2.15132
N         -3.66710       -2.77197       -0.43597
C         -4.06224       -0.01888       -1.39513
H         -4.61465       -2.40960       -0.28846
H          0.43152       -0.71579       -3.12798
C          2.51113        0.53283       -0.27992
O         -4.75895        0.76111       -0.44104
H         -3.79070        0.67783       -2.19588
H         -4.71398       -0.80115       -1.80372
C         -5.58512        0.11380        0.40157
O         -5.79896       -1.08353        0.37518
N         -6.10345        0.98297        1.29468
H         -6.08154        1.98207        1.09792
O         -7.16063        0.55522        2.04710
H         -6.80616        0.38531        2.93293
H          3.39687        0.43341        0.35910
H          2.87033        0.72203       -1.30062
N          0.86691        2.37559       -0.76948
C          1.74701        1.76403        0.22798
C          2.66622        2.97665        0.48808
C          2.78107        3.60423       -0.89954
O          1.65366        3.11849       -1.64162
H          1.19493        1.57074        1.14970
C          3.99521        2.70824        1.16487
H          2.10024        3.65911        1.13971
H          2.74872        4.70209       -0.87449
H          3.68861        3.27630       -1.42851
O          4.57522        3.96276        1.45514
H          3.82660        2.11650        2.08386
H          4.65392        2.11857        0.50379
H          5.46855        3.80865        1.78227
O          2.98336       -1.75449       -0.60964
S          3.98097       -2.49982        0.51937
O          3.23141       -3.68892        0.94002
O          5.15635       -2.77273       -0.30165
O          4.16919       -1.50169        1.58106
H         -3.45092       -3.72994       -0.17789
H         -0.06049       -0.54018        3.38923
H         -1.02777       -3.10097       -0.20943
H          1.79306       -2.76936       -1.65054
