62
ZTX_395_solv.log	Energy: -1483135.5012701
C         -1.26684        1.69364        0.58720
N         -0.75032        1.95694        1.90731
C          0.05785        1.11049        2.54161
C         -0.47926        2.14837       -0.66476
H         -2.18018        2.28892        0.48200
N          0.66437        1.47132        3.65770
H          0.61564        2.43270        3.98121
H         -1.02508        2.81535        2.37635
N          0.28920       -0.10404        2.00272
C          0.46153       -1.29100       -0.07991
C          1.87858       -0.87129        0.47999
C          1.60836       -0.72244        1.97998
O          0.29010       -2.65672       -0.10633
O          0.28289       -0.71605       -1.33078
H          2.35375       -0.09570        2.48333
H          1.58914       -1.71254        2.45560
O         -1.15818        2.41511       -1.65095
C         -1.64734        0.22381        0.44543
C         -0.56829       -0.72589        0.99362
N         -1.38021       -1.76556        1.57903
C         -2.64793       -1.39625        1.72381
N         -2.84137       -0.15211        1.21627
H         -1.82967        0.00986       -0.61577
N         -3.57550       -2.14056        2.27800
C         -4.13005        0.31854        0.81980
H         -4.54079       -1.83352        2.33262
H         -0.42227       -1.19467       -1.78961
C          2.49932        0.39001       -0.15156
O         -4.47908       -0.33741       -0.39354
H         -4.87182        0.10574        1.60146
H         -4.09441        1.40432        0.66853
C         -5.60053        0.09253       -0.99584
O         -6.29871        0.99010       -0.57658
N         -5.84847       -0.66310       -2.09757
H         -5.07683       -1.16989       -2.52784
O         -6.76466       -0.16354       -2.98523
H         -7.55710       -0.71079       -2.88305
H          3.54273        0.36847        0.18275
H          2.52731        0.26528       -1.24058
N          0.86098        2.23737       -0.67816
C          1.97523        1.79944        0.16789
C          2.97589        2.92341       -0.19450
C          2.69735        3.14071       -1.68020
O          1.38666        2.60448       -1.91201
H          1.72215        1.93341        1.22057
C          4.43802        2.74053        0.17719
H          2.62900        3.80918        0.35720
H          2.70858        4.20427       -1.95791
H          3.39523        2.58410       -2.31932
O          5.08387        1.84966       -0.70584
H          4.92231        3.73275        0.14854
H          4.49241        2.38354        1.22165
H          5.97485        1.69400       -0.37318
O          2.81468       -1.94335        0.40932
S          3.48559       -2.58087       -0.96969
O          4.25534       -1.52340       -1.62637
O          4.27917       -3.65946       -0.39110
O          2.32263       -3.03847       -1.76735
H         -3.33354       -3.04904        2.66186
H          1.16478        0.79182        4.22110
H         -0.99782       -2.65016        1.89978
H          0.96253       -3.01063       -0.73368
