62
ZTX_311_solv.log	Energy: -1483143.9092569
C          1.56194        0.86613        1.05006
N          1.82376        1.28333       -0.30575
C          1.25376        0.67535       -1.34587
C          0.40186        1.49412        1.85069
H          2.42068        1.19696        1.64376
N          1.41422        1.14669       -2.56869
H          1.89621        2.02826       -2.71664
H          2.66672        1.84667       -0.47475
N          0.45733       -0.38917       -1.12122
C         -0.92246       -1.52454        0.46350
C         -1.77795       -0.72768       -0.61707
C         -0.80837       -0.63290       -1.79821
O         -1.12946       -2.89128        0.35777
O         -1.11382       -1.06225        1.75638
H         -1.05509        0.18299       -2.48867
H         -0.79158       -1.58231       -2.35216
O          0.55424        1.53806        3.06646
C          1.48673       -0.65757        1.13703
C          0.57033       -1.25247        0.05470
N          1.28443       -2.46613       -0.28194
C          2.58075       -2.35373        0.02140
N          2.77065       -1.30382        0.84224
H          1.14046       -0.95322        2.13563
N          3.51708       -3.17696       -0.39482
C          4.00443       -0.89334        1.44439
H          4.49323       -2.89509       -0.32325
H         -2.05698       -1.19276        1.96088
C         -2.28743        0.65862       -0.17753
O          4.53044        0.24511        0.78179
H          3.81589       -0.57081        2.47422
H          4.72488       -1.72047        1.45362
C          5.12390        0.03669       -0.40345
O          5.51269       -1.04522       -0.79745
N          5.29557        1.19089       -1.09474
H          5.56481        1.11130       -2.07316
O          4.50204        2.27487       -0.81977
H          5.01490        2.86508       -0.24574
H         -3.01788        0.91045       -0.95607
H         -2.85745        0.56959        0.75704
N         -0.70113        1.97588        1.25425
C         -1.33975        1.86142       -0.05482
C         -2.08795        3.21427       -0.05183
C         -2.53582        3.32062        1.40216
O         -1.65181        2.46806        2.14486
H         -0.59541        1.90695       -0.84993
C         -3.20184        3.40705       -1.06844
H         -1.32353        3.98149       -0.24583
H         -2.46236        4.34499        1.79294
H         -3.55919        2.94429        1.55219
O         -2.73375        3.33539       -2.39859
H         -4.02623        2.69520       -0.88929
H         -3.62080        4.41483       -0.92845
H         -2.60045        2.40915       -2.63388
O         -2.87236       -1.49971       -1.09553
S         -4.21089       -1.81650       -0.16407
O         -5.04550       -0.61516       -0.18608
O         -4.76451       -2.97429       -0.85496
O         -3.64224       -2.11799        1.17588
H          3.27331       -3.89358       -1.07218
H          1.10434        0.61351       -3.37452
H          0.93323       -3.12086       -0.97460
H         -2.04100       -3.05047        0.66234
