62
ZTX_442_solv.log	Energy: -1483138.6181975
C         -1.42143        1.26322       -0.55303
N         -1.47358        1.55612        0.85848
C         -0.78244        0.86196        1.76045
C         -0.36387        1.93652       -1.45561
H         -2.34440        1.66135       -0.98738
N         -0.67928        1.28659        3.00605
H         -1.03252        2.20259        3.26633
H         -2.06536        2.31957        1.17368
N         -0.14093       -0.25494        1.36595
C          0.91931       -1.45579       -0.42049
C          1.97412       -0.75051        0.53155
C          1.18440       -0.62798        1.83795
O          0.97610       -2.82419       -0.29710
O          1.04724       -1.12752       -1.76730
H          1.59974        0.13512        2.50759
H          1.16874       -1.59580        2.35772
O         -0.72503        2.19597       -2.59835
C         -1.41151       -0.24651       -0.79998
C         -0.49447       -1.01723        0.17053
N         -1.32180       -2.15128        0.51014
C         -2.58839       -1.99360        0.13083
N         -2.72211       -0.86239       -0.59506
H         -1.08066       -0.43856       -1.82993
N         -3.56726       -2.82741        0.39638
C         -3.82160       -0.56311       -1.46924
H         -4.53298       -2.51446        0.24438
H          1.46255       -0.26547       -1.89539
C          2.54204        0.61061        0.07429
O         -4.71725        0.38675       -0.91873
H         -3.42211       -0.09630       -2.37633
H         -4.35666       -1.48172       -1.74078
C         -5.73170       -0.07934       -0.16772
O         -5.90050       -1.25137        0.11548
N         -6.55215        0.93201        0.18090
H         -6.24252        1.89803        0.09448
O         -7.47473        0.68931        1.15797
H         -8.32428        0.57736        0.70471
H          3.38893        0.75445        0.75477
H          2.98769        0.51973       -0.92680
N          0.90007        2.15260       -1.04868
C          1.70528        1.89861        0.14562
C          2.57003        3.17927        0.10829
C          2.80151        3.36978       -1.38648
O          1.73726        2.65750       -2.03719
H          1.08479        1.95276        1.03993
C          3.83370        3.17219        0.95131
H          1.92023        3.99051        0.47238
H          2.76495        4.42433       -1.69193
H          3.74941        2.92259       -1.72160
O          3.57172        2.82425        2.29386
H          4.55522        2.43770        0.56428
H          4.31512        4.16291        0.87538
H          2.98345        3.49149        2.66884
O          3.05465       -1.61658        0.85807
S          4.23041       -2.16060       -0.18457
O          4.90310       -0.98760       -0.74671
O          5.03483       -2.96100        0.73086
O          3.48631       -2.94799       -1.19443
H         -3.38590       -3.63701        0.98115
H         -0.28546        0.69118        3.72738
H         -0.99169       -2.91513        1.09133
H          1.85693       -3.09563       -0.64125
