62
ZTX_416_solv.log	Energy: -1483137.4728547
C         -1.56685        1.41294        0.60499
N         -1.07314        1.68507        1.93262
C         -0.22046        0.87944        2.56399
C         -0.81120        1.92495       -0.63894
H         -2.51882        1.94705        0.50675
N          0.33856        1.25274        3.70024
H          0.22021        2.20094        4.04454
H         -1.42202        2.50508        2.42088
N          0.10533       -0.30330        2.00233
C          0.37665       -1.43770       -0.09139
C          1.75101       -0.91430        0.47573
C          1.47007       -0.82468        1.97877
O          0.43867       -2.82491       -0.09516
O          0.04763       -0.93132       -1.33191
H          2.16109       -0.14963        2.49706
H          1.52329       -1.82215        2.43646
O         -1.49544        2.11594       -1.63896
C         -1.83796       -0.07508        0.43330
C         -0.69980       -0.95240        0.96776
N         -1.44542       -2.06502        1.51107
C         -2.73657       -1.77388        1.67858
N         -3.00668       -0.54305        1.18858
H         -1.98425       -0.29806       -0.63255
N         -3.59622       -2.58532        2.24911
C         -4.31401       -0.06427        0.82726
H         -4.57515       -2.34283        2.35656
H          0.79880       -1.17976       -1.91157
C          2.27013        0.42479       -0.09484
O         -4.54904       -0.33574       -0.54064
H         -5.08341       -0.56720        1.42143
H         -4.38323        1.01335        1.01504
C         -4.62890        0.71142       -1.38656
O         -4.79221        1.86512       -1.04574
N         -4.57666        0.31485       -2.68140
H         -4.41777        1.04789       -3.37007
O         -4.00605       -0.89166       -2.99654
H         -4.73744       -1.48130       -3.23252
H          3.28994        0.46500        0.30534
H          2.36112        0.34445       -1.18562
N          0.51306        2.14292       -0.62776
C          1.63990        1.78341        0.23344
C          2.57517        2.96660       -0.11836
C          2.27640        3.19780       -1.59925
O          1.02980        2.53704       -1.85571
H          1.36558        1.88852        1.28320
C          4.04685        2.78698        0.18756
H          2.20765        3.82742        0.45960
H          2.18166        4.26458       -1.84635
H          3.02655        2.73503       -2.25706
O          4.18007        2.50450        1.56446
H          4.47219        1.97844       -0.43304
H          4.57749        3.71638       -0.08722
H          5.10622        2.30328        1.74042
O          2.76615       -1.89124        0.32220
S          3.46593       -2.21154       -1.15602
O          2.44211       -1.88505       -2.17373
O          4.64119       -1.33584       -1.21629
O          3.76856       -3.63430       -1.03377
H         -3.27458       -3.47410        2.62110
H          0.87774        0.59546        4.25433
H         -0.99527       -2.88793        1.90242
H         -0.35853       -3.15390       -0.53428
