62
ZTX_308_solv.log	Energy: -1483138.3108622
C          1.53077        1.00636        0.87389
N          1.73951        1.33377       -0.51419
C          1.16421        0.64163       -1.49694
C          0.35768        1.62640        1.66373
H          2.38720        1.41533        1.42060
N          1.24588        1.05565       -2.74748
H          1.65173        1.96203       -2.96005
H          2.45815        2.01500       -0.74657
N          0.44676       -0.45418       -1.18185
C         -0.87313       -1.50987        0.52002
C         -1.76807       -0.84588       -0.60305
C         -0.82012       -0.80257       -1.80553
O         -1.02068       -2.87730        0.56990
O         -1.16111       -0.90691        1.73766
H         -1.12067       -0.05979       -2.55397
H         -0.77061       -1.79278       -2.27961
O          0.54230        1.75141        2.86970
C          1.52486       -0.50885        1.06520
C          0.61495       -1.22229        0.05379
N          1.37281       -2.42895       -0.20354
C          2.66696       -2.24726        0.07698
N          2.82719       -1.12134        0.79978
H          1.21943       -0.73782        2.09492
N          3.63552       -3.06511       -0.26988
C          4.02709       -0.68133        1.44950
H          4.59550       -2.71347       -0.25053
H         -0.81724       -1.46884        2.44681
C         -2.34810        0.53935       -0.26062
O          4.63426        0.38277        0.73706
H          3.76992       -0.26748        2.43104
H          4.72268       -1.51801        1.58389
C          5.36376        0.05088       -0.33818
O          5.69149       -1.08953       -0.62092
N          5.67392        1.11589       -1.10528
H          6.41758        1.00854       -1.79248
O          5.46348        2.38714       -0.64690
H          4.70608        2.72893       -1.14622
H         -3.07644        0.70820       -1.06331
H         -2.91875        0.47040        0.67327
N         -0.79111        2.00490        1.07889
C         -1.46364        1.79636       -0.20516
C         -2.29209        3.09857       -0.23726
C         -2.66768        3.28395        1.23257
O         -1.73968        2.48241        1.97661
H         -0.74146        1.84873       -1.02190
C         -3.46589        3.14952       -1.19515
H         -1.59770        3.90016       -0.53004
H         -2.58883        4.32928        1.56188
H         -3.67628        2.90480        1.45469
O         -3.95368        4.47451       -1.18769
H         -3.12845        2.84794       -2.20451
H         -4.25331        2.44281       -0.87985
H         -4.76206        4.49496       -1.71194
O         -2.81814       -1.70924       -1.02481
S         -4.16509       -2.11974       -0.14275
O         -4.94054       -0.89812        0.08167
O         -4.77792       -3.08612       -1.04727
O         -3.62286       -2.70618        1.10538
H          3.41916       -3.85496       -0.87032
H          0.92762        0.46921       -3.51196
H          1.03915       -3.14759       -0.83927
H         -1.95909       -3.04275        0.81825
