62
ZTX_83_solv.log	Energy: -1483141.1278212
C          1.37423        1.21758        0.63669
N          1.47792        1.52283       -0.76927
C          0.89026        0.78626       -1.71099
C          0.22419        1.79882        1.48690
H          2.24458        1.67474        1.11919
N          0.84464        1.20550       -2.96218
H          1.14978        2.14462       -3.19980
H          2.04488        2.31724       -1.05198
N          0.29442       -0.36838       -1.35571
C         -0.82778       -1.56355        0.38608
C         -1.83911       -0.94566       -0.65506
C         -0.97303       -0.82970       -1.91213
O         -0.93250       -2.94385        0.28450
O         -1.01147       -1.12343        1.68126
H         -1.37369       -0.11482       -2.64045
H         -0.86408       -1.81244       -2.39201
O          0.49091        2.01395        2.66527
C          1.45078       -0.28921        0.87245
C          0.59881       -1.09514       -0.12338
N          1.46757       -2.21944       -0.39785
C          2.73130       -1.96988       -0.04046
N          2.79623       -0.82893        0.67549
H          1.12138       -0.50774        1.89650
N          3.75751       -2.73898       -0.31659
C          3.88555       -0.43483        1.52543
H          4.70183       -2.36003       -0.18551
H         -1.93925       -1.35724        1.89678
C         -2.48279        0.40728       -0.27043
O          4.68404        0.58374        0.95053
H          3.46806        0.00178        2.43956
H          4.50051       -1.30470        1.78770
C          5.69472        0.20115        0.14839
O          5.95205       -0.95400       -0.13564
N          6.40087        1.27875       -0.25041
H          6.00209        2.21141       -0.16195
O          7.28379        1.10829       -1.27855
H          8.16560        1.09424       -0.87658
H         -3.27027        0.51448       -1.02622
H         -2.99189        0.30234        0.69629
N         -1.00313        2.01084        0.98731
C         -1.71367        1.73716       -0.26168
C         -2.66082        2.95885       -0.25600
C         -2.99173        3.09835        1.22814
O         -1.92685        2.44530        1.93077
H         -1.03991        1.85256       -1.11162
C         -3.87681        2.90942       -1.17320
H         -2.05500        3.82235       -0.56841
H         -3.04721        4.14568        1.55572
H         -3.92816        2.58261        1.49174
O         -4.51696        4.16517       -1.25172
H         -3.55039        2.64996       -2.19196
H         -4.58529        2.13092       -0.84107
H         -4.97131        4.32497       -0.41572
O         -2.86986       -1.86487       -0.96919
S         -4.11750       -2.19144        0.08663
O         -5.17546       -1.24093       -0.27101
O         -4.41239       -3.58442       -0.23500
O         -3.57188       -1.97465        1.44498
H          3.62032       -3.56105       -0.89651
H          0.52377        0.59364       -3.70508
H          1.21035       -2.94968       -1.05639
H         -0.36073       -3.33205        0.96218
