62
ZTX_6_solv.log	Energy: -1483141.3915948
C          0.96204       -1.99865       -0.05524
N          0.49917       -2.44359        1.23642
C         -0.13550       -1.64270        2.09107
C          0.04267       -2.08451       -1.29474
H          1.76248       -2.68382       -0.35284
N         -0.71158       -2.13429        3.17293
H         -0.78409       -3.13854        3.30598
H          0.67149       -3.40776        1.50723
N         -0.22320       -0.32799        1.80868
C         -0.32679        1.29354        0.04648
C         -1.75518        0.95732        0.62240
C         -1.42861        0.46405        2.03528
O         -0.07012        2.62503        0.34921
O         -0.18374        1.03305       -1.30032
H         -2.23276       -0.14624        2.46346
H         -1.22690        1.31644        2.69896
O          0.61234       -2.24802       -2.36847
C          1.54778       -0.59374        0.03833
C          0.66084        0.35679        0.86443
N          1.65620        1.12974        1.56785
C          2.86375        0.56939        1.52106
N          2.83333       -0.54020        0.74847
H          1.67297       -0.18688       -0.97351
N          3.92183        1.03127        2.14783
C          3.98965       -1.26473        0.31202
H          4.85670        0.75089        1.83301
H         -0.88596        1.56317       -1.73409
C         -2.58953       -0.07527       -0.16792
O          4.60056       -0.68938       -0.83188
H          4.71052       -1.34799        1.13423
H          3.68589       -2.27207        0.01307
C          5.66806        0.10994       -0.63834
O          6.11963        0.40817        0.45206
N          6.12953        0.55611       -1.82437
H          5.86875        0.07856       -2.68511
O          7.35106        1.16725       -1.83484
H          7.17564        2.11720       -1.91308
H         -3.57423        0.01204        0.30591
H         -2.70566        0.26342       -1.20525
N         -1.29121       -1.96180       -1.20781
C         -2.26269       -1.57293       -0.18626
C         -3.45504       -2.43280       -0.67271
C         -3.30015       -2.38362       -2.19104
O         -1.94445       -1.98255       -2.43357
H         -1.96536       -1.95774        0.78878
C         -4.82919       -2.03118       -0.18072
H         -3.25298       -3.45701       -0.32552
H         -3.48028       -3.35906       -2.66420
H         -3.94937       -1.62650       -2.65498
O         -4.80909       -2.03882        1.23112
H         -5.10406       -1.03692       -0.57528
H         -5.56788       -2.75035       -0.57797
H         -5.65755       -1.70638        1.54550
O         -2.52630        2.13477        0.78352
S         -3.20649        2.92704       -0.51504
O         -4.54862        2.35173       -0.64976
O         -3.17746        4.31369       -0.05885
O         -2.33094        2.64246       -1.67383
H          3.83079        1.88493        2.69069
H         -1.07830       -1.51775        3.89058
H          1.43284        1.96657        2.09851
H          0.74684        2.87983       -0.10303
