62
ZTX_452_solv.log	Energy: -1483140.5926184
C          1.08798       -1.88150        0.33203
N          0.64050       -2.13906        1.67912
C          0.01355       -1.22526        2.41800
C          0.16523       -2.15586       -0.87625
H          1.89440       -2.59387        0.12966
N         -0.54021       -1.55736        3.56980
H         -0.59494       -2.53149        3.85231
H          0.83145       -3.04907        2.08855
N         -0.09389        0.03506        1.95283
C         -0.24035        1.38415       -0.01443
C         -1.66492        1.08789        0.60486
C         -1.31799        0.82105        2.07280
O          0.04348        2.74142        0.11538
O         -0.09330        0.96525       -1.32022
H         -2.10001        0.26139        2.59872
H         -1.13458        1.76720        2.60079
O          0.73435       -2.45982       -1.91909
C          1.65272       -0.47090        0.21201
C          0.76950        0.58638        0.90389
N          1.76574        1.46250        1.47008
C          2.98500        0.93090        1.44938
N          2.94803       -0.29819        0.88462
H          1.76037       -0.21659       -0.85024
N          4.06180        1.51253        1.92777
C          4.10122       -1.08084        0.55833
H          4.98142        1.20579        1.59271
H         -0.80723        1.40809       -1.82162
C         -2.49341       -0.05235       -0.02168
O          4.63123       -0.76856       -0.72136
H          4.86287       -0.95898        1.33732
H          3.81948       -2.13693        0.50917
C          5.65763        0.09209       -0.78012
O          6.14202        0.65826        0.18782
N          6.14252        0.23602       -2.02974
H          6.76266        1.02332       -2.20885
O          5.42758       -0.20913       -3.10622
H          5.85743       -1.02894       -3.39399
H         -3.47686        0.08953        0.44212
H         -2.62043        0.13549       -1.09552
N         -1.17023       -2.04293       -0.80272
C         -2.14542       -1.53606        0.16167
C         -3.32922       -2.46241       -0.20211
C         -3.16881       -2.63296       -1.71311
O         -1.82274       -2.23891       -2.01236
H         -1.83473       -1.78335        1.17791
C         -4.72418       -2.02269        0.21776
H         -3.12385       -3.42707        0.28750
H         -3.32428       -3.67017       -2.04097
H         -3.83475       -1.96622       -2.28046
O         -5.68760       -2.98999       -0.13935
H         -4.73754       -1.81430        1.30310
H         -5.01257       -1.09795       -0.30346
H         -5.48500       -3.80317        0.33950
O         -2.43412        2.28625        0.58799
S         -3.22180        2.83469       -0.80075
O         -4.52832        2.17921       -0.79095
O         -3.23866        4.26951       -0.53688
O         -2.34733        2.42416       -1.91814
H          3.97611        2.44268        2.32622
H         -0.89023       -0.84445        4.20114
H          1.56287        2.42814        1.71050
H         -0.76714        3.19504        0.39635
