62
ZTX_63_solv.log	Energy: -1483137.5715305
C         -1.41859        1.39911        1.00428
N         -0.67778        1.30206        2.23848
C          0.30309        0.41762        2.41031
C         -0.90745        2.30692       -0.13714
H         -2.37211        1.88107        1.24407
N          1.07955        0.46868        3.47708
H          1.01005        1.24934        4.12297
H         -0.93792        1.90422        3.01438
N          0.52429       -0.49540        1.44571
C          0.36109       -0.95070       -0.89774
C          1.83763       -0.58699       -0.45304
C          1.85144       -0.94743        1.04503
O          0.28145       -2.20173       -1.47937
O         -0.19835       -0.02865       -1.76179
H          2.63561       -0.41517        1.59578
H          1.95723       -2.02407        1.22369
O         -1.76789        2.78358       -0.86838
C         -1.71622        0.00873        0.45148
C         -0.46926       -0.89053        0.45029
N         -1.04640       -2.17180        0.78150
C         -2.25901       -2.04719        1.31625
N         -2.66533       -0.75739        1.27384
H         -2.09845        0.10108       -0.57291
N         -2.95376       -3.04785        1.80654
C         -4.03583       -0.36904        1.45616
H         -3.90397       -2.92790        2.14009
H          0.31841       -0.01702       -2.57965
C          2.24916        0.88148       -0.67818
O         -4.85517       -0.75680        0.36853
H         -4.44412       -0.86691        2.34235
H         -4.08664        0.71401        1.61149
C         -5.00661        0.12694       -0.64416
O         -4.53752        1.24341       -0.65992
N         -5.72016       -0.44928       -1.63985
H         -6.28660       -1.27154       -1.44065
O         -6.22313        0.38090       -2.60390
H         -5.65761        0.26023       -3.38119
H          3.32524        0.85833       -0.46687
H          2.13957        1.11412       -1.74707
N          0.39959        2.55914       -0.32453
C          1.67772        2.03615        0.15497
C          2.51055        3.33556        0.02729
C          1.92463        3.98268       -1.22675
O          0.66468        3.33443       -1.44697
H          1.61923        1.79996        1.21697
C          4.01582        3.18105       -0.00192
H          2.24785        3.94932        0.90164
H          1.76463        5.06343       -1.10549
H          2.53886        3.80208       -2.12092
O          4.41080        2.50190        1.17114
H          4.32927        2.63535       -0.90921
H          4.47041        4.18652       -0.05899
H          5.35614        2.32343        1.11081
O          2.75487       -1.29024       -1.28208
S          3.51550       -2.69438       -0.84610
O          4.25767       -3.00144       -2.06131
O          4.32777       -2.37295        0.32950
O          2.39673       -3.62565       -0.55282
H         -2.55036       -3.97961        1.82311
H          1.73426       -0.27932        3.68127
H         -0.52584       -3.04375        0.74665
H          0.98460       -2.80435       -1.15007
