62
ZTX_232_solv.log	Energy: -1483139.8528161
C         -1.47243        1.42998       -0.30252
N         -1.40302        1.20453        1.11975
C         -0.68077        0.22331        1.65729
C         -0.45681        2.35888       -1.00255
H         -2.40762        1.97005       -0.48692
N         -0.48754        0.16881        2.96237
H         -0.78775        0.93489        3.55748
H         -1.94215        1.80832        1.73420
N         -0.10824       -0.68551        0.84342
C          0.81112       -1.08902       -1.31874
C          1.93061       -0.78472       -0.25663
C          1.24090       -1.20249        1.05104
O          0.90225       -2.40241       -1.73899
O          0.92125       -0.19776       -2.37560
H          1.70404       -0.75659        1.93727
H          1.23340       -2.29449        1.16292
O         -0.87666        2.95341       -1.99091
C         -1.54844        0.10353       -1.05502
C         -0.55232       -0.94593       -0.52712
N         -1.35131       -2.14918       -0.58238
C         -2.65406       -1.88081       -0.67436
N         -2.84343       -0.56369       -0.90482
H         -1.36507        0.29230       -2.12142
N         -3.61667       -2.76939       -0.58725
C         -4.05432        0.02362       -1.40884
H         -4.57789       -2.43661       -0.45593
H          0.44962       -0.56895       -3.13527
C          2.48465        0.65118       -0.23987
O         -4.78712        0.70521       -0.40649
H         -3.78829        0.78794       -2.14736
H         -4.67863       -0.74028       -1.88874
C         -5.65972       -0.01450        0.32306
O         -5.84856       -1.21008        0.19411
N         -6.32093        0.79174        1.17784
H         -5.96580        1.72392        1.38150
O         -7.04533        0.20084        2.17298
H         -7.97391        0.26103        1.90183
H          3.40877        0.56349        0.34062
H          2.78579        0.90920       -1.26399
N          0.80886        2.49388       -0.57715
C          1.70182        1.82140        0.36819
C          2.58486        3.03521        0.74366
C          2.68772        3.78725       -0.58147
O          1.58554        3.32582       -1.37641
H          1.15633        1.54379        1.27167
C          3.90079        2.77061        1.45659
H          1.97726        3.63512        1.43671
H          2.61019        4.87623       -0.45288
H          3.60794        3.54474       -1.12892
O          4.88622        2.30053        0.56190
H          4.22821        3.71272        1.93125
H          3.71836        2.04419        2.26857
H          5.62465        1.96405        1.08185
O          3.01854       -1.61299       -0.64953
S          4.05180       -2.34297        0.45525
O          3.34387       -3.55991        0.86887
O          5.22478       -2.57042       -0.38330
O          4.22503       -1.35562        1.52980
H         -3.38429       -3.73298       -0.36728
H         -0.05999       -0.64547        3.39158
H         -0.97559       -3.05913       -0.33365
H          1.84936       -2.62603       -1.70909
