62
ZTX_193_solv.log	Energy: -1483138.8998175
C          1.12345       -1.92242        0.25114
N          0.70589       -2.23075        1.59763
C          0.04139       -1.36413        2.36069
C          0.18760       -2.20110       -0.94671
H          1.95191       -2.59917        0.01761
N         -0.49904       -1.74755        3.50289
H         -0.51043       -2.72950        3.76242
H          0.92814       -3.14602        1.97889
N         -0.11539       -0.09921        1.92520
C         -0.32752        1.29679       -0.00939
C         -1.72920        0.95885        0.63045
C         -1.35315        0.65800        2.08430
O         -0.13400        2.66520        0.13469
O         -0.18981        0.89194       -1.32045
H         -2.11669        0.06834        2.60501
H         -1.18044        1.59356        2.63437
O          0.74601       -2.46620       -2.00615
C          1.63856       -0.48957        0.16199
C          0.71832        0.51007        0.88865
N          1.68425        1.40894        1.47426
C          2.91760        0.90721        1.46583
N          2.93073       -0.28692        0.83177
H          1.72645       -0.20316       -0.89406
N          3.96412        1.48802        2.00805
C          4.12028       -0.99476        0.46562
H          4.90300        1.22236        1.68984
H         -0.92506        1.33325       -1.79688
C         -2.52103       -0.19915       -0.01987
O          4.66506       -0.54802       -0.76716
H          4.86083       -0.91105        1.26985
H          3.88058       -2.05207        0.32093
C          5.68151        0.32570       -0.71896
O          6.13630        0.80107        0.31032
N          6.13210        0.66617       -1.94290
H          7.01999        1.16154       -1.99823
O          5.80459       -0.08457       -3.03781
H          5.13355        0.42226       -3.51967
H         -3.51838       -0.10056        0.42347
H         -2.64635        0.00374       -1.09109
N         -1.14865       -2.13800       -0.84280
C         -2.12607       -1.67216        0.14196
C         -3.27019       -2.65991       -0.19823
C         -3.14128       -2.80764       -1.71429
O         -1.82183       -2.34688       -2.03963
H         -1.79241       -1.91765        1.15066
C         -4.66840       -2.34677        0.30826
H         -2.97976       -3.61143        0.26997
H         -3.25488       -3.85038       -2.04364
H         -3.84894       -2.16866       -2.25783
O         -5.27777       -1.33893       -0.46849
H         -5.26179       -3.27769        0.27011
H         -4.59859       -2.05056        1.37039
H         -6.08301       -1.05884       -0.01941
O         -2.55676        2.10831        0.67007
S         -3.28277        2.72832       -0.69572
O         -4.60622        2.10031       -0.73983
O         -3.29265        4.15763       -0.39638
O         -2.41595        2.34467       -1.83249
H          3.84199        2.39609        2.44636
H         -0.88114       -1.06593        4.15001
H          1.42782        2.28916        1.91145
H          0.66293        2.90407       -0.35986
