62
ZTX_523_solv.log	Energy: -1483134.5720792
C         -1.63121        1.35356        0.78609
N         -1.18547        1.46558        2.15444
C         -0.34031        0.59945        2.71124
C         -0.84390        2.02542       -0.36046
H         -2.58385        1.89101        0.72125
N          0.18906        0.83986        3.89631
H          0.05728        1.73934        4.34875
H         -1.54475        2.22880        2.72101
N          0.01191       -0.50804        2.02689
C          0.34759       -1.43127       -0.15651
C          1.70415       -0.95451        0.49213
C          1.38040       -1.01780        1.98784
O          0.41904       -2.81353       -0.27245
O          0.04871       -0.82578       -1.35944
H          2.05229       -0.39867        2.59363
H          1.42850       -2.05665        2.34234
O         -1.50629        2.36598       -1.33626
C         -1.87930       -0.10656        0.42198
C         -0.76239       -1.04194        0.90821
N         -1.52703       -2.19873        1.31432
C         -2.82822       -1.93281        1.43392
N         -3.08933       -0.66682        1.03859
H         -1.95945       -0.19903       -0.66948
N         -3.70596       -2.79705        1.88817
C         -4.38001       -0.19306        0.60376
H         -4.68995       -2.56812        1.97669
H          0.81430       -1.02994       -1.93827
C          2.22229        0.43684        0.06342
O         -4.45595       -0.29158       -0.80430
H         -5.17844       -0.80112        1.03995
H         -4.52528        0.84758        0.91606
C         -4.50927        0.85363       -1.51450
O         -4.80229        1.93810       -1.05578
N         -4.26394        0.63819       -2.83113
H         -4.06256        1.46748       -3.38682
O         -3.55544       -0.47468       -3.20871
H         -4.19610       -1.07483       -3.61806
H          3.25607        0.45095        0.42555
H          2.28919        0.47488       -1.03154
N          0.48249        2.20590       -0.30148
C          1.58411        1.74579        0.54640
C          2.50444        2.97639        0.38202
C          2.31469        3.31210       -1.09290
O          1.02956        2.77968       -1.44561
H          1.27277        1.71823        1.59074
C          3.94309        2.90593        0.88550
H          2.02968        3.77340        0.97444
H          2.31924        4.39394       -1.28497
H          3.05999        2.82260       -1.73828
O          4.81141        2.04253        0.18729
H          4.34299        3.93508        0.89443
H          3.92643        2.55942        1.92980
H          4.93665        2.37888       -0.70774
O          2.73044       -1.90736        0.27249
S          3.45581       -2.10492       -1.21407
O          2.45372       -1.68875       -2.22079
O          4.63485       -1.23415       -1.18016
O          3.75019       -3.53517       -1.20687
H         -3.39898       -3.72210        2.17377
H          0.72240        0.12320        4.37805
H         -1.08901       -3.04588        1.66597
H         -0.37501       -3.11123       -0.73893
