62
ZTX_213_solv.log	Energy: -1483143.5885055
C          1.58967        0.79681        0.78036
N          1.76497        1.18127       -0.59890
C          1.08060        0.61121       -1.58876
C          0.54018        1.50102        1.66484
H          2.52013        1.07900        1.28435
N          1.14117        1.09038       -2.81702
H          1.61965        1.96670       -3.00244
H          2.54467        1.79430       -0.82508
N          0.27428       -0.42985       -1.30068
C         -1.02494       -1.51175        0.38790
C         -1.92831       -0.66502       -0.60847
C         -1.05708       -0.60370       -1.86521
O         -1.29005       -2.86811        0.27067
O         -1.10554       -1.07124        1.69984
H         -1.32407        0.23064       -2.52490
H         -1.13458       -1.54675       -2.42446
O          0.80550        1.56471        2.86071
C          1.44288       -0.71574        0.89925
C          0.44692       -1.28874       -0.12866
N          1.09467       -2.52673       -0.49409
C          2.38487       -2.52592       -0.16004
N          2.67922       -1.44322        0.58616
H          1.11286       -0.96991        1.91430
N          3.23946       -3.46253       -0.50465
C          3.91439       -1.29212        1.31425
H          4.21659       -3.41469       -0.23605
H         -2.03717       -1.17171        1.96680
C         -2.34278        0.73833       -0.12443
O          4.98528       -0.95448        0.45532
H          3.77359       -0.53776        2.09719
H          4.20505       -2.24206        1.78057
C          5.20025        0.35000        0.18051
O          4.60500        1.27381        0.69405
N          6.21063        0.46303       -0.70947
H          6.48761       -0.33803       -1.27326
O          6.39613        1.68495       -1.29264
H          7.16357        2.07946       -0.85158
H         -3.11756        1.02301       -0.84540
H         -2.83480        0.66935        0.85511
N         -0.59467        2.01328        1.16058
C         -1.34566        1.90529       -0.08913
C         -2.03980        3.28791       -0.05279
C         -2.30790        3.48365        1.43829
O         -1.44220        2.56216        2.11559
H         -0.66624        1.90839       -0.94137
C         -3.26148        3.45768       -0.93005
H         -1.28171        4.01565       -0.37836
H         -2.08644        4.50642        1.77427
H         -3.33908        3.22189        1.71742
O         -2.89064        3.15910       -2.25928
H         -4.07935        2.80191       -0.58232
H         -3.62097        4.49805       -0.83512
H         -3.68395        3.18832       -2.80596
O         -3.09331       -1.38387       -0.99946
S         -4.36349       -1.65329        0.03605
O         -5.13058       -0.41011        0.11505
O         -5.03691       -2.76029       -0.63161
O         -3.70208       -2.02227        1.31520
H          2.93033       -4.24227       -1.07655
H          0.73847        0.57743       -3.59470
H          0.66836       -3.20872       -1.11374
H         -2.18254       -3.00340        0.63613
