62
ZTX_459_solv.log	Energy: -1483132.3389299
C         -1.47122        1.16169        1.07096
N         -0.76824        0.89531        2.30094
C          0.14248       -0.06993        2.41229
C         -0.88301        2.15107        0.04008
H         -2.40274        1.67028        1.34043
N          0.88981       -0.16402        3.49708
H          0.85039        0.55879        4.20936
H         -1.00314        1.44415        3.12314
N          0.32692       -0.91779        1.38072
C          0.24584       -1.05088       -1.00945
C          1.71620       -0.82931       -0.48122
C          1.63892       -1.38743        0.95134
O          0.21107       -2.26166       -1.68056
O         -0.24136       -0.01705       -1.78918
H          2.43221       -1.00372        1.60119
H          1.68151       -2.48432        0.94706
O         -1.69658        2.72827       -0.67213
C         -1.83277       -0.14567        0.37622
C         -0.64063       -1.11216        0.30266
N         -1.30845       -2.38630        0.43634
C         -2.51890       -2.24830        0.98231
N         -2.83753       -0.93989        1.10099
H         -2.18947        0.06957       -0.63950
N         -3.28084       -3.25485        1.33887
C         -4.17824       -0.47974        1.33490
H         -4.21947       -3.11387        1.69644
H          0.32617        0.08755       -2.56616
C          2.20877        0.63459       -0.53043
O         -4.99433       -0.61119        0.18665
H         -4.64163       -1.08480        2.12163
H         -4.14942        0.56217        1.67125
C         -5.13355        0.47359       -0.60972
O         -4.60268        1.54442       -0.41623
N         -5.99282        0.18296       -1.61494
H         -6.17434       -0.79035       -1.85286
O         -6.03035        1.05441       -2.66892
H         -6.85535        1.55345       -2.57390
H          3.27498        0.53000       -0.29671
H          2.14992        0.97774       -1.57332
N          0.43798        2.37180       -0.06960
C          1.67442        1.73864        0.39297
C          2.57838        2.99188        0.40486
C          2.06470        3.78378       -0.79807
O          0.77310        3.23979       -1.10202
H          1.56653        1.40832        1.42731
C          4.08400        2.77329        0.40599
H          2.32470        3.54233        1.32434
H          1.96676        4.85788       -0.58707
H          2.69263        3.64266       -1.69009
O          4.77348        4.00228        0.48435
H          4.36024        2.09697        1.23535
H          4.40856        2.29881       -0.53150
H          4.54444        4.41888        1.32437
O          2.57572       -1.54262       -1.35157
S          3.95904       -2.30894       -0.83326
O          3.50172       -3.57952       -0.25524
O          4.68268       -2.44069       -2.09580
O          4.57563       -1.40223        0.14929
H         -2.93375       -4.20537        1.25229
H          1.48616       -0.97046        3.65101
H         -0.81911       -3.27474        0.36601
H         -0.68624       -2.38394       -2.02403
