62
ZTX_91_solv.log	Energy: -1483142.1676421
C          1.40112        1.20318        0.74033
N          1.51695        1.54451       -0.65537
C          0.89158        0.85749       -1.60926
C          0.26262        1.79523        1.60159
H          2.28201        1.62184        1.23925
N          0.86382        1.30274       -2.85214
H          1.22321        2.22641       -3.07366
H          2.12670        2.31268       -0.92062
N          0.23828       -0.27164       -1.27244
C         -0.93799       -1.40376        0.48596
C         -1.92297       -0.74848       -0.56129
C         -1.05784       -0.64471       -1.82051
O         -1.02905       -2.77712        0.50871
O         -1.17474       -0.84270        1.73436
H         -1.43044        0.11104       -2.52275
H         -1.01155       -1.61854       -2.32739
O          0.51937        1.93509        2.79287
C          1.43361       -0.31174        0.92482
C          0.51087       -1.04710       -0.06137
N          1.30284       -2.21509       -0.37287
C          2.58765       -2.03914       -0.06042
N          2.74451       -0.90211        0.65356
H          1.14775       -0.54464        1.95897
N          3.56107       -2.86233       -0.37222
C          3.87972       -0.59448        1.47945
H          4.52875       -2.53946       -0.26586
H         -0.77199       -1.41072        2.40693
C         -2.52184        0.60906       -0.14991
O          4.72188        0.38857        0.90574
H          3.51779       -0.15546        2.41559
H          4.44839       -1.50499        1.70540
C          5.66882       -0.03151        0.04638
O          5.86360       -1.19484       -0.25280
N          6.33719        1.02763       -0.45622
H          6.29132        1.92798        0.01767
O          7.50016        0.77565       -1.12742
H          7.29547        0.88131       -2.06881
H         -3.31248        0.76446       -0.89269
H         -3.01534        0.50797        0.82406
N         -0.93396        2.12822        1.08924
C         -1.67492        1.89202       -0.15036
C         -2.54107        3.17275       -0.13598
C         -2.84501        3.34110        1.34995
O         -1.84105        2.58386        2.04077
H         -1.00948        1.96357       -1.01069
C         -3.76456        3.18009       -1.03683
H         -1.87680        3.99044       -0.45670
H         -2.79645        4.38944        1.67590
H         -3.82147        2.91637        1.62703
O         -3.43975        2.86511       -2.37397
H         -4.49976        2.43418       -0.70092
H         -4.25386        4.16710       -0.96076
H         -2.83441        3.54130       -2.70276
O         -2.96907       -1.63878       -0.93545
S         -4.24010       -2.11283        0.02304
O         -5.03423       -0.92194        0.33146
O         -4.88443       -3.07528       -0.86379
O         -3.59784       -2.71378        1.21572
H          3.36226       -3.67389       -0.94874
H          0.51345        0.72028       -3.60533
H          0.96886       -2.95171       -0.98708
H         -1.94301       -2.98577        0.80949
