62
ZTX_320_solv.log	Energy: -1483141.3045342
C          1.56408        0.93949        1.02706
N          1.81997        1.30956       -0.34229
C          1.30744        0.61674       -1.35839
C          0.36146        1.53897        1.78452
H          2.39674        1.33876        1.61615
N          1.48084        1.02767       -2.60140
H          1.92900        1.92070       -2.78353
H          2.63128        1.91265       -0.52979
N          0.55691       -0.47164       -1.09314
C         -0.84035       -1.53237        0.54016
C         -1.68244       -0.84599       -0.61171
C         -0.68523       -0.79694       -1.77430
O         -1.00943       -2.89806        0.57358
O         -1.16812       -0.93437        1.75025
H         -0.94302       -0.03870       -2.52323
H         -0.62839       -1.78079       -2.26095
O          0.48688        1.62055        3.00148
C          1.56007       -0.58060        1.17925
C          0.66594       -1.26182        0.13404
N          1.41073       -2.47797       -0.11649
C          2.70546       -2.30662        0.16877
N          2.86806       -1.18826        0.90322
H          1.24440       -0.84184        2.19827
N          3.65736       -3.14040       -0.18509
C          4.09231       -0.66856        1.43718
H          4.63263       -2.86279       -0.10841
H         -0.85722       -1.50362        2.46841
C         -2.26265        0.54026       -0.27424
O          4.53330        0.45140        0.68652
H          3.91536       -0.28764        2.44893
H          4.86087       -1.44881        1.47957
C          5.08101        0.20148       -0.51320
O          5.47330       -0.88830       -0.87733
N          5.20317        1.32910       -1.25971
H          5.41852        1.20780       -2.24725
O          4.40098        2.41002       -0.99491
H          4.92690        3.03187       -0.46822
H         -2.95344        0.72949       -1.10502
H         -2.87332        0.46444        0.63344
N         -0.74696        1.96470        1.15420
C         -1.36803        1.78592       -0.16054
C         -2.18053        3.09826       -0.20392
C         -2.60364        3.27318        1.25531
O         -1.73209        2.42851        2.01903
H         -0.61230        1.84339       -0.94603
C         -3.32236        3.17326       -1.19819
H         -1.46835        3.89512       -0.46487
H         -2.50243        4.31061        1.60359
H         -3.63136        2.92503        1.43586
O         -3.79679        4.50315       -1.18927
H         -2.95634        2.88086       -2.20026
H         -4.12641        2.47102       -0.91676
H         -4.59175        4.53706       -1.73296
O         -2.72317       -1.69383       -1.08578
S         -4.11008       -2.09696       -0.26433
O         -4.68983       -3.05656       -1.19742
O         -3.62723       -2.69012        1.00495
O         -4.88608       -0.87049       -0.06996
H          3.42803       -3.91791       -0.79679
H          1.21042        0.44298       -3.38522
H          1.07065       -3.19929       -0.74555
H         -1.95884       -3.05164        0.78479
