62
ZTX_516_solv.log	Energy: -1483132.5205186
C         -1.47245        1.16158        1.07525
N         -0.76911        0.89297        2.30456
C          0.14139       -0.07268        2.41396
C         -0.88399        2.15246        0.04581
H         -2.40370        1.67015        1.34571
N          0.88936       -0.16889        3.49807
H          0.85151        0.55315        4.21123
H         -1.00288        1.44123        3.12745
N          0.32493       -0.91913        1.38104
C          0.24196       -1.04930       -1.00922
C          1.71250       -0.82807       -0.48189
C          1.63667       -1.38789        0.94998
O          0.20667       -2.25940       -1.68147
O         -0.24568       -0.01467       -1.78767
H          2.43048       -1.00473        1.59956
H          1.67966       -2.48476        0.94426
O         -1.69725        2.73032       -0.66607
C         -1.83495       -0.14455        0.37863
C         -0.64348       -1.11174        0.30350
N         -1.31191       -2.38560        0.43609
C         -2.52257       -2.24759        0.98150
N         -2.84051       -0.93912        1.10191
H         -2.19130        0.07250       -0.63681
N         -3.28530       -3.25427        1.33600
C         -4.18164       -0.47884        1.33343
H         -4.22376       -3.11331        1.69402
H          0.31995        0.08878       -2.56620
C          2.20434        0.63595       -0.53050
O         -4.99499       -0.60894        0.18310
H         -4.64694       -1.08455        2.11850
H         -4.15323        0.56271        1.67094
C         -5.13240        0.47678       -0.61231
O         -4.60320        1.54782       -0.41546
N         -5.98777        0.18669       -1.62104
H         -6.16722       -0.78648       -1.86111
O         -6.02230        1.05960       -2.67393
H         -6.84784        1.55813       -2.58094
H          3.27138        0.53095       -0.30142
H          2.14129        0.98115       -1.57243
N          0.43709        2.37432       -0.06250
C          1.67326        1.73839        0.39680
C          2.57875        2.98998        0.41212
C          2.06171        3.79057       -0.78458
O          0.77278        3.24313       -1.09370
H          1.56629        1.40546        1.43038
C          4.07660        2.75829        0.40689
H          2.33631        3.53727        1.33512
H          1.95901        4.86218       -0.56325
H          2.68986        3.66006       -1.67792
O          4.69453        4.01570        0.58288
H          4.34357        2.05758        1.21998
H          4.39275        2.29987       -0.54619
H          5.64337        3.89879        0.46086
O          2.57145       -1.54044       -1.35367
S          3.95776       -2.30296       -0.83775
O          4.67950       -2.43288       -2.10158
O          4.57391       -1.39454        0.14356
O          3.50486       -3.57462       -0.25872
H         -2.93853       -4.20482        1.24843
H          1.48605       -0.97552        3.64974
H         -0.82308       -3.27424        0.36484
H         -0.69103       -2.38157       -2.02401
