62
ZTX_340_solv.log	Energy: -1483141.1124598
C         -1.75755        0.97063        0.89296
N         -1.35660        0.87710        2.27450
C         -0.46732       -0.01461        2.70878
C         -0.98672        1.87946       -0.09300
H         -2.74098        1.45372        0.89186
N          0.01066        0.05928        3.93701
H         -0.21316        0.85475        4.52750
H         -1.78657        1.50494        2.94829
N         -0.01815       -0.96331        1.86144
C          0.44358       -1.39509       -0.44771
C          1.75144       -0.97040        0.34685
C          1.38692       -1.34984        1.78439
O          0.52366       -2.71260       -0.87444
O          0.12662       -0.52712       -1.48063
H          1.98986       -0.81690        2.52880
H          1.50785       -2.43224        1.92873
O         -1.63673        2.32625       -1.03755
C         -1.89230       -0.41998        0.28329
C         -0.70986       -1.33895        0.62851
N         -1.38016       -2.60807        0.76885
C         -2.70185       -2.47847        0.86453
N         -3.05723       -1.17760        0.76002
H         -1.94408       -0.32997       -0.80938
N         -3.51887       -3.48979        1.04656
C         -4.39063       -0.70754        0.46610
H         -4.52345       -3.36674        1.10391
H          0.87989       -0.54686       -2.09857
C          2.18318        0.50319        0.20397
O         -4.50806       -0.43443       -0.91615
H         -5.12834       -1.46892        0.73615
H         -4.60461        0.19931        1.04428
C         -4.45550        0.87602       -1.27952
O         -4.80758        1.79294       -0.57107
N         -3.97075        0.98698       -2.53570
H         -3.42558        0.21757       -2.92171
O         -3.61950        2.23861       -2.95845
H         -2.85582        2.48444       -2.39484
H          3.19342        0.52761        0.62677
H          2.30330        0.74193       -0.86150
N          0.30823        2.17084        0.06575
C          1.42083        1.65850        0.86955
C          2.24055        2.96553        0.95445
C          2.06056        3.53880       -0.44708
O          0.83779        2.97041       -0.94077
H          1.08343        1.42885        1.88096
C          3.66863        2.91383        1.49094
H          1.68931        3.60822        1.65762
H          1.97231        4.63383       -0.44898
H          2.86248        3.23348       -1.13599
O          4.62061        2.26550        0.67852
H          3.98126        3.95114        1.70359
H          3.65672        2.37855        2.45230
H          4.73264        2.76938       -0.13605
O          2.85837       -1.80398        0.01856
S          3.62672       -1.73412       -1.45276
O          4.51386       -0.57174       -1.42543
O          4.29450       -3.02932       -1.47970
O          2.51030       -1.60315       -2.42612
H         -3.14176       -4.42788        1.13992
H          0.57620       -0.69146        4.31986
H         -0.88598       -3.49294        0.83047
H          1.19974       -2.73337       -1.57522
