62
ZTX_204_solv.log	Energy: -1483135.3589886
C         -1.63278        1.34898        0.80225
N         -1.19315        1.44579        2.17367
C         -0.34965        0.57382        2.72357
C         -0.83974        2.03469       -0.33181
H         -2.58478        1.88758        0.73881
N          0.17589        0.80149        3.91292
H          0.04169        1.69609        4.37426
H         -1.55420        2.20297        2.74720
N          0.00471       -0.52594        2.02792
C          0.34766       -1.42773       -0.16372
C          1.70206       -0.96023        0.49502
C          1.37282       -1.03586        1.98872
O          0.41704       -2.80860       -0.29544
O          0.05482       -0.80763       -1.36066
H          2.04317       -0.42244        2.60213
H          1.41964       -2.07775        2.33440
O         -1.49776        2.38817       -1.30556
C         -1.88007       -0.10677        0.42083
C         -0.76592       -1.04827        0.90128
N         -1.53280       -2.20867        1.29188
C         -2.83490       -1.94531        1.40431
N         -3.09342       -0.67336        1.02572
H         -1.95535       -0.18710       -0.67198
N         -3.71558       -2.81755        1.83711
C         -4.38155       -0.19410        0.58980
H         -4.69973       -2.58938        1.92570
H          0.82260       -1.00559       -1.93858
C          2.22527        0.43412        0.08137
O         -4.45420       -0.28548       -0.81887
H         -5.18292       -0.80167        1.02133
H         -4.52509        0.84517        0.90734
C         -4.50441        0.86342       -1.52302
O         -4.79826        1.94563       -1.05941
N         -4.25478        0.65500       -2.83990
H         -4.05339        1.48694       -3.39157
O         -3.54639       -0.45635       -3.22189
H         -4.18645       -1.05371       -3.63622
H          3.25530        0.43809        0.45538
H          2.30313        0.48476       -1.01216
N          0.48725        2.21533       -0.26500
C          1.58693        1.73824        0.57543
C          2.51351        2.97147        0.44127
C          2.28649        3.39571       -1.00876
O          1.04082        2.79806       -1.39820
H          1.27302        1.69331        1.61835
C          3.96696        2.83381        0.86215
H          2.07497        3.73534        1.09960
H          2.21555        4.48703       -1.12012
H          3.05919        3.00424       -1.68301
O          4.71550        2.13424       -0.10773
H          4.37640        3.84902        1.00962
H          4.00132        2.32488        1.84238
H          5.58960        1.95815        0.25786
O          2.72721       -1.91339        0.27271
S          3.45863       -2.10216       -1.21208
O          4.64595       -1.24363       -1.16030
O          3.73911       -3.53527       -1.21940
O          2.46621       -1.66497       -2.21922
H         -3.40987       -3.74613        2.11241
H          0.70737        0.07973        4.38899
H         -1.09717       -3.06253        1.62994
H         -0.37524       -3.09901       -0.76953
