62
ZTX_479_solv.log	Energy: -1483140.0296420
C         -1.15590        1.77072        0.62889
N         -0.58052        1.63611        1.94386
C          0.13870        0.57565        2.30955
C         -0.35795        2.43792       -0.51611
H         -1.99348        2.47036        0.72152
N          0.79676        0.57756        3.45450
H          0.86083        1.42598        4.00881
H         -0.74547        2.37157        2.62559
N          0.22588       -0.47981        1.47580
C          0.24860       -1.07987       -0.84055
C          1.70348       -0.96129       -0.25274
C          1.47367       -1.20483        1.24638
O         -0.02377       -2.38258       -1.21200
O          0.11263       -0.20103       -1.90444
H          2.27962       -0.80868        1.87132
H          1.35143       -2.27737        1.45004
O         -1.03129        2.99032       -1.37928
C         -1.69954        0.43029        0.14581
C         -0.70726       -0.72542        0.37350
N         -1.60418       -1.80778        0.69414
C         -2.82360       -1.37695        1.00609
N         -2.89113       -0.03073        0.87224
H         -1.93861        0.51245       -0.92321
N         -3.81244       -2.14775        1.39712
C         -4.09926        0.73186        0.96226
H         -4.77746       -1.80626        1.32713
H         -0.65731       -0.46727       -2.42771
C          2.44712        0.35049       -0.55450
O         -4.83124        0.74943       -0.25431
H         -4.71830        0.34491        1.78060
H         -3.84827        1.77493        1.17622
C         -5.89199       -0.07412       -0.36493
O         -6.20033       -0.91850        0.45669
N         -6.57609        0.20541       -1.49134
H         -6.15578        0.77841       -2.22049
O         -7.50867       -0.70032       -1.90851
H         -8.37131       -0.32461       -1.67551
H          3.46357        0.15444       -0.19730
H          2.50222        0.47131       -1.64456
N          0.98386        2.40957       -0.56990
C          2.06466        1.68551        0.09720
C          3.17966        2.75125       -0.04709
C          2.85720        3.39281       -1.39737
O          1.51478        2.99807       -1.71016
H          1.84959        1.58483        1.16142
C          4.60585        2.25353        0.06709
H          3.00748        3.48818        0.75106
H          2.91863        4.48985       -1.36480
H          3.49772        3.01503       -2.20753
O          4.75404        1.61530        1.31823
H          4.83940        1.56418       -0.76265
H          5.28948        3.11641       -0.02852
H          5.58121        1.12051        1.30755
O          2.39759       -2.02460       -0.88365
S          3.99434       -2.42774       -0.55972
O          3.98599       -3.84147       -0.92768
O          4.78900       -1.56930       -1.44481
O          4.17573       -2.14836        0.87084
H         -3.65319       -3.14833        1.46724
H          1.23734       -0.26742        3.80272
H         -1.32770       -2.78356        0.64976
H          0.82758       -2.77495       -1.47642
