62
ZTX_9_solv.log	Energy: -1483137.8718879
C         -1.24221        1.78996        0.51872
N         -0.71710        2.06307        1.83476
C         -0.00404        1.17363        2.52368
C         -0.39695        2.08587       -0.73899
H         -2.08593        2.47137        0.36819
N          0.61671        1.52354        3.63540
H          0.64793        2.49753        3.92151
H         -0.91603        2.96375        2.26064
N          0.11746       -0.07794        2.04091
C          0.19830       -1.38631        0.03623
C          1.63860       -1.09125        0.60815
C          1.35515       -0.84906        2.09408
O          0.00348       -2.75904        0.10725
O         -0.01591       -0.89856       -1.23651
H          2.15275       -0.28663        2.59330
H          1.20569       -1.80529        2.61503
O         -1.02777        2.36934       -1.75126
C         -1.76725        0.36024        0.43730
C         -0.78414       -0.65379        1.04353
N         -1.69438       -1.58780        1.66661
C         -2.90616       -1.05861        1.83908
N         -2.99007        0.14277        1.22642
H         -1.95216        0.10279       -0.61295
N         -3.87559       -1.64358        2.50274
C         -4.24771        0.76811        0.92021
H         -4.80239       -1.23630        2.56451
H          0.68263       -1.31184       -1.78617
C          2.40204        0.09136       -0.02903
O         -4.99385        0.04538       -0.04149
H         -4.87099        0.80730        1.81999
H         -4.06415        1.79246        0.57859
C         -4.78067        0.34076       -1.34371
O         -3.96655        1.14514       -1.74114
N         -5.64460       -0.36256       -2.11148
H         -6.10764       -1.18343       -1.72599
O         -5.38245       -0.41837       -3.45260
H         -6.01802        0.17885       -3.87476
H          3.40319       -0.01232        0.40730
H          2.50987       -0.08491       -1.10687
N          0.94372        2.01099       -0.73795
C          1.99639        1.55629        0.17083
C          3.11079        2.53638       -0.26232
C          2.85258        2.69709       -1.76203
O          1.52015        2.21500       -1.98379
H          1.73657        1.79408        1.20287
C          4.53783        2.15679        0.08060
H          2.89593        3.49180        0.23879
H          2.92101        3.74298       -2.09240
H          3.52495        2.07565       -2.37130
O          5.35504        3.25355       -0.27020
H          4.60905        1.92749        1.16032
H          4.84001        1.25199       -0.47532
H          6.27445        2.97947       -0.17918
O          2.45722       -2.24474        0.54388
S          3.10783       -2.78485       -0.89369
O          4.42313       -2.14265       -0.97887
O          3.14373       -4.22735       -0.67139
O          2.17383       -2.34762       -1.95457
H         -3.70904       -2.53705        2.95548
H          1.02982        0.82277        4.24191
H         -1.37580       -2.43224        2.13401
H         -0.84576       -2.95732       -0.31279
