62
ZTX_240_solv.log	Energy: -1483134.7160361
C         -1.28820        1.39251        0.95893
N         -0.59955        1.24886        2.21845
C          0.32448        0.31199        2.42284
C         -0.70626        2.29262       -0.15312
H         -2.23016        1.90936        1.17220
N          1.05427        0.31135        3.52310
H          0.99647        1.08630        4.17687
H         -0.86318        1.85396        2.99102
N          0.54170       -0.60518        1.46040
C          0.45754       -1.03907       -0.89185
C          1.92518       -0.72298       -0.38792
C          1.86634       -1.10004        1.10384
O          0.35892       -2.29205       -1.46584
O         -0.02793       -0.10408       -1.78631
H          2.64559       -0.60688        1.69563
H          1.92516       -2.18222        1.27038
O         -1.52693        2.80404       -0.90733
C         -1.62232        0.02490        0.37163
C         -0.42818       -0.94157        0.42055
N         -1.08991       -2.18986        0.71898
C         -2.32978       -2.00867        1.16462
N         -2.65828       -0.69385        1.12633
H         -1.95246        0.14950       -0.66772
N         -3.11227       -2.97728        1.57913
C         -4.00830       -0.22840        1.12041
H         -4.06869       -2.80467        1.86981
H          0.53861       -0.10698       -2.57102
C          2.40168        0.73264       -0.58577
O         -4.54741       -0.45133       -0.17622
H         -4.59860       -0.76127        1.87769
H         -4.03109        0.84082        1.36281
C         -5.63771        0.26422       -0.50300
O         -6.21748        1.01273        0.25383
N         -5.94866        0.05414       -1.80779
H         -5.58965       -0.77658       -2.27468
O         -7.19921        0.44048       -2.21084
H         -7.07335        1.25012       -2.72743
H          3.46942        0.66041       -0.34226
H          2.34241        0.97241       -1.65719
N          0.61403        2.49147       -0.30068
C          1.85155        1.91555        0.22569
C          2.74343        3.17277        0.12261
C          2.23830        3.83217       -1.16084
O          0.94407        3.26476       -1.40706
H          1.74014        1.68405        1.28575
C          4.24384        2.96622        0.17228
H          2.47426        3.81106        0.97731
H          2.14437        4.92302       -1.06793
H          2.86899        3.59143       -2.02944
O          4.83962        4.24492        0.23225
H          4.50078        2.35756        1.05931
H          4.58875        2.41789       -0.72151
H          5.79355        4.13086        0.15569
O          2.84678       -1.44969       -1.19186
S          3.55720       -2.87473       -0.74040
O          4.32911       -3.19466       -1.93349
O          4.33942       -2.57895        0.46204
O          2.40659       -3.77855       -0.48778
H         -2.76472       -3.93133        1.59753
H          1.65089       -0.47741        3.75063
H         -0.61925       -3.09029        0.69193
H          1.03310       -2.91304       -1.11092
