62
ZTX_36_solv.log	Energy: -1483145.6427393
C          1.40160        1.20051        0.67797
N          1.50312        1.53303       -0.72191
C          0.86182        0.85099       -1.66898
C          0.29045        1.81867        1.55538
H          2.29713        1.60801        1.15924
N          0.81733        1.29987       -2.90982
H          1.17050        2.22552       -3.13320
H          2.10581        2.30397       -0.99523
N          0.21195       -0.27890       -1.32748
C         -0.91220       -1.47008        0.41304
C         -1.93032       -0.77975       -0.59139
C         -1.09038       -0.65379       -1.86379
O         -0.98815       -2.85288        0.32260
O         -1.04229       -1.02139        1.71768
H         -1.47580        0.11171       -2.54839
H         -1.04627       -1.61925       -2.38682
O          0.58330        2.00062        2.73272
C          1.41747       -0.31422        0.87538
C          0.51207       -1.05826       -0.12599
N          1.33059       -2.20267       -0.45434
C          2.60502       -2.02562       -0.10464
N          2.73464       -0.90580        0.63858
H          1.09743       -0.54554        1.89933
N          3.59104       -2.83563       -0.41202
C          3.84653       -0.60071        1.49558
H          4.55373       -2.50742       -0.27973
H         -1.94466       -1.25941        2.00026
C         -2.51638        0.57528       -0.14615
O          4.69349        0.39812        0.95613
H          3.45771       -0.17793        2.42844
H          4.41798       -1.50948        1.72161
C          5.65902       -0.00080        0.10791
O          5.87252       -1.15832       -0.20104
N          6.32364        1.07129       -0.37136
H          6.25848        1.96615        0.11050
O          7.50070        0.84022       -1.02531
H          7.31082        0.95488       -1.96873
H         -3.32479        0.73535       -0.86843
H         -2.98992        0.47235        0.83942
N         -0.93011        2.10499        1.07471
C         -1.68127        1.86400       -0.15599
C         -2.55450        3.14224       -0.13945
C         -2.82350        3.33871        1.35051
O         -1.82137        2.57188        2.03283
H         -1.02462        1.93761       -1.02239
C         -3.80309        3.12366       -0.99496
H         -1.90635        3.95640       -0.49645
H         -2.74686        4.39128        1.65713
H         -3.80124        2.93828        1.65651
O         -3.42103        2.83710       -2.32362
H         -4.52044        2.37680       -0.61127
H         -4.29531        4.10991       -0.91988
H         -4.22166        2.73620       -2.85069
O         -2.99952       -1.65301       -0.93969
S         -4.20866       -2.05074        0.12686
O         -5.12987       -0.91561        0.18164
O         -4.74193       -3.25714       -0.49353
O         -3.48502       -2.29004        1.40294
H          3.40993       -3.63787       -1.00706
H          0.45540        0.72032       -3.65981
H          1.01454       -2.93619       -1.08140
H         -1.84936       -3.10465        0.69946
