62
ZTX_176_solv.log	Energy: -1483142.6912548
C          1.38420        1.19839        0.64195
N          1.49385        1.49689       -0.76514
C          0.91190        0.75578       -1.70673
C          0.23636        1.78839        1.48844
H          2.25504        1.65451        1.12451
N          0.87736        1.16812       -2.96059
H          1.18585        2.10545       -3.20112
H          2.06718        2.28634       -1.04910
N          0.30905       -0.39598       -1.35088
C         -0.81259       -1.58863        0.38366
C         -1.82872       -0.94249       -0.64135
C         -0.96814       -0.83645       -1.90353
O         -0.86836       -2.97458        0.27018
O         -0.99410       -1.18079        1.68997
H         -1.36198       -0.11293       -2.62703
H         -0.87651       -1.81772       -2.38993
O          0.50091        2.00329        2.66702
C          1.45708       -0.30708        0.88308
C          0.61074       -1.12146       -0.11298
N          1.48602       -2.23921       -0.37871
C          2.74322       -1.99407       -0.00924
N          2.80536       -0.84303        0.69270
H          1.12402       -0.52288        1.90657
N          3.77098       -2.77168       -0.26055
C          3.89089       -0.43924        1.54193
H          4.71308       -2.38761       -0.13345
H         -1.92084       -1.40427        1.91029
C         -2.47160        0.40528       -0.25492
O          4.68205        0.58425        0.96486
H          3.47132       -0.00286        2.45528
H          4.51239       -1.30365        1.80689
C          5.67993        0.20833        0.14398
O          5.94122       -0.94478       -0.14356
N          6.36885        1.29230       -0.26933
H          5.95912        2.21997       -0.17800
O          7.23086        1.12897       -1.31649
H          8.12169        1.13336       -0.93482
H         -3.26643        0.51152       -1.00257
H         -2.96715        0.30894        0.71963
N         -0.98667        2.01218        0.98308
C         -1.69490        1.72976       -0.26437
C         -2.63113        2.96004       -0.27932
C         -2.93965        3.16110        1.20365
O         -1.91400        2.45576        1.91667
H         -1.01735        1.82638       -1.11327
C         -3.86871        2.89409       -1.16223
H         -2.01791        3.80430       -0.63139
H         -2.92392        4.21866        1.50090
H         -3.90257        2.71390        1.49205
O         -4.58421        4.10955       -1.12011
H         -3.57418        2.62958       -2.19425
H         -4.56107        2.11822       -0.80353
H         -4.01186        4.80291       -1.47121
O         -2.85525       -1.88552       -0.93143
S         -4.16723       -2.13969        0.09973
O         -5.16912       -1.15093       -0.29636
O         -4.48932       -3.52368       -0.23061
O         -3.62501       -1.94004        1.45904
H          3.63899       -3.59428       -0.84074
H          0.56163        0.55231       -3.70252
H          1.20410       -3.02286       -0.95927
H         -1.64905       -3.20192       -0.25934
