62
ZTX_355_solv.log	Energy: -1483135.9812458
C         -1.20936        1.85882        0.18850
N         -0.68195        2.30795        1.45449
C          0.05920        1.52984        2.24082
C         -0.37910        2.02147       -1.10443
H         -2.06802        2.49971       -0.03782
N          0.68314        2.02971        3.29174
H          0.69560        3.03228        3.45403
H         -0.89153        3.25398        1.76092
N          0.20798        0.23044        1.91486
C          0.25907       -1.36257        0.12999
C          1.71002       -0.94859        0.59111
C          1.47260       -0.48878        2.03239
O          0.10434       -2.70757        0.43974
O         -0.00906       -1.10304       -1.19811
H          2.26925        0.16698        2.40426
H          1.37951       -1.35760        2.69884
O         -1.01959        2.16965       -2.13920
C         -1.70792        0.42125        0.29682
C         -0.70958       -0.49050        1.03370
N         -1.60557       -1.32807        1.79717
C         -2.83233       -0.81426        1.87530
N         -2.93081        0.29242        1.10667
H         -1.88657        0.02361       -0.70946
N         -3.79763       -1.33580        2.59650
C         -4.18992        0.87674        0.73676
H         -4.74194       -0.96622        2.58116
H          0.68304       -1.58970       -1.69424
C          2.40990        0.14178       -0.25044
O         -4.93909        0.04585       -0.13254
H         -4.80889        1.01483        1.63001
H         -4.01093        1.85529        0.27843
C         -4.72259        0.18538       -1.45292
O         -3.92343        0.96110       -1.93971
N         -5.46552       -0.67508       -2.18667
H         -5.54089       -0.48756       -3.18449
O         -6.54862       -1.30116       -1.62915
H         -6.27689       -2.21865       -1.47740
H          3.45053        0.06860        0.08838
H          2.41175       -0.15277       -1.30748
N          0.96347        2.00215       -1.09872
C          2.01906        1.62273       -0.16332
C          3.12367        2.57076       -0.68599
C          2.90251        2.50482       -2.19200
O          1.53272        2.11328       -2.36494
H          1.77443        1.94716        0.84775
C          4.55283        2.30448       -0.24176
H          2.84888        3.57547       -0.33084
H          3.06365        3.47247       -2.68684
H          3.53035        1.73869       -2.67236
O          4.70977        2.42730        1.15558
H          4.90419        1.32335       -0.60676
H          5.20148        3.06271       -0.70526
H          4.31853        1.65510        1.58129
O          2.55824       -2.08039        0.67009
S          3.17833       -2.81519       -0.69200
O          4.46361       -2.15103       -0.93082
O          3.27870       -4.20379       -0.25209
O          2.19053       -2.57984       -1.76839
H         -3.61085       -2.15808        3.16236
H          1.12771        1.41838        3.96901
H         -1.28421       -2.12237        2.34315
H         -0.73655       -3.00190        0.06224
