62
ZTX_67_solv.log	Energy: -1483138.9491711
C          1.53098        1.00102        0.77395
N          1.71177        1.31740       -0.62189
C          1.11095        0.63272       -1.59548
C          0.39010        1.64129        1.59303
H          2.40833        1.39877        1.29443
N          1.15658        1.06057       -2.84329
H          1.55015        1.97209       -3.05715
H          2.40459        2.01904       -0.87176
N          0.41016       -0.47173       -1.27279
C         -0.84074       -1.61612        0.41353
C         -1.77665       -0.91441       -0.64531
C         -0.86864       -0.83326       -1.87533
O         -1.03916       -2.98396        0.28461
O         -1.02945       -1.18233        1.71021
H         -1.19843       -0.07613       -2.59682
H         -0.81415       -1.81022       -2.37580
O          0.62381        1.80907        2.78579
C          1.51182       -0.51260        0.98053
C          0.62666       -1.24047       -0.04606
N          1.42336       -2.41961       -0.32324
C          2.70772       -2.22258        0.00051
N          2.82458       -1.12075        0.76336
H          1.16734       -0.73690        1.99836
N          3.69945       -3.01076       -0.34663
C          3.98943       -0.68915        1.47918
H          4.65269       -2.64538       -0.28328
H         -1.97706       -1.35116        1.89663
C         -2.34084        0.47208       -0.25883
O          4.61519        0.40471        0.83258
H          3.68430       -0.31163        2.46125
H          4.68844       -1.52253        1.61557
C          5.39095        0.12153       -0.22398
O          5.74109       -1.00407       -0.53765
N          5.71738        1.22039       -0.93347
H          6.47988        1.15157       -1.60444
O          5.46965        2.46936       -0.43505
H          4.69245        2.79906       -0.91181
H         -3.10101        0.63540       -1.03225
H         -2.87866        0.39508        0.69484
N         -0.79469        1.96169        1.05046
C         -1.48347        1.74487       -0.22189
C         -2.33866        3.03086       -0.23838
C         -2.69032        3.21116        1.23723
O         -1.72199        2.44383        1.96611
H         -0.77748        1.81414       -1.05078
C         -3.53247        3.05652       -1.17236
H         -1.66610        3.84585       -0.54496
H         -2.63717        4.25944        1.56163
H         -3.68220        2.80171        1.48032
O         -4.05287        4.36870       -1.14843
H         -3.20824        2.76736       -2.18963
H         -4.29530        2.32892       -0.84422
H         -4.87295        4.37121       -1.65462
O         -2.85568       -1.75849       -1.00453
S         -4.15550       -2.01101        0.00792
O         -5.13436       -0.98612       -0.36960
O         -4.53400       -3.37682       -0.34266
O         -3.64002       -1.84800        1.38527
H          3.51447       -3.79291       -0.96731
H          0.82137        0.48014       -3.60511
H          1.13503       -3.10104       -1.02049
H         -0.50097       -3.42407        0.95776
