62
ZTX_53_solv.log	Energy: -1483137.0679542
C         -1.23911        1.79134        0.49619
N         -0.71123        2.08047        1.80780
C          0.00537        1.20008        2.50454
C         -0.39836        2.07944       -0.76687
H         -2.08468        2.46944        0.34087
N          0.62851        1.56280        3.61069
H          0.65865        2.53969        3.88687
H         -0.91080        2.98542        2.22425
N          0.12861       -0.05627        2.03453
C          0.19590       -1.39809        0.05201
C          1.64028       -1.08707        0.60494
C          1.36977       -0.82225        2.08931
O          0.00623       -2.76960        0.15405
O         -0.03072       -0.93815       -1.22899
H          2.16959       -0.24789        2.57154
H          1.22966       -1.77043        2.62719
O         -1.03244        2.35262       -1.78012
C         -1.76334        0.36041        0.43351
C         -0.77946       -0.64638        1.05177
N         -1.68849       -1.56878        1.69349
C         -2.90023       -1.03745        1.85886
N         -2.98504        0.15383        1.22751
H         -1.95019        0.08961       -0.61299
N         -3.86843       -1.61287        2.53279
C         -4.24221        0.77928        0.92076
H         -4.79665       -1.20780        2.58685
H          0.66503       -1.36095       -1.77537
C          2.39159        0.08904       -0.05923
O         -4.99439        0.04984       -0.03117
H         -4.86131        0.82790        1.82296
H         -4.05806        1.80014        0.56925
C         -4.78485        0.33222       -1.33679
O         -3.96888        1.12943       -1.74479
N         -5.65472       -0.37429       -2.09490
H         -6.11957       -1.18994       -1.70065
O         -5.39852       -0.44242       -3.43662
H         -6.03257        0.15499       -3.86082
H          3.40246       -0.01472        0.35381
H          2.47438       -0.09643       -1.13774
N          0.94282        2.01867       -0.76555
C          1.99470        1.55751        0.14028
C          3.11429        2.52977       -0.29570
C          2.87247        2.64568       -1.80054
O          1.51548        2.23440       -2.01359
H          1.74040        1.80047        1.17248
C          4.54061        2.16436        0.09716
H          2.88685        3.49637        0.17748
H          3.00110        3.67143       -2.17337
H          3.51578        1.96360       -2.37713
O          5.43074        3.24082       -0.10585
H          4.56679        1.92587        1.17160
H          4.87847        1.26809       -0.45152
H          5.57067        3.34282       -1.05469
O          2.46316       -2.23822        0.55149
S          3.10197       -2.80038       -0.88265
O          4.41489       -2.15689       -0.99008
O          3.14278       -4.23907       -0.63801
O          2.15762       -2.38232       -1.94231
H         -3.70016       -2.49964        2.99791
H          1.04427        0.86895        4.22324
H         -1.36975       -2.40681        2.17212
H         -0.84824       -2.97964       -0.24935
