62
ZTX_503_solv.log	Energy: -1483138.7976213
C         -1.58090        0.84215       -0.79188
N         -1.76531        1.19035        0.59483
C         -1.13867        0.54340        1.57589
C         -0.46815        1.50709       -1.62750
H         -2.48073        1.19252       -1.30839
N         -1.21906        0.96758        2.82344
H         -1.66744        1.85394        3.03448
H         -2.53293        1.81635        0.82752
N         -0.37100       -0.51831        1.26219
C          0.96545       -1.51571       -0.46302
C          1.84796       -0.78171        0.62553
C          0.93205       -0.77793        1.85345
O          1.19409       -2.87285       -0.49672
O          1.18405       -0.91824       -1.69728
H          1.20519       -0.00611        2.58261
H          0.95816       -1.76166        2.34287
O         -0.68646        1.58689       -2.83199
C         -1.50544       -0.67138       -0.95757
C         -0.52606       -1.31152        0.04118
N         -1.19386       -2.55918        0.33244
C         -2.49113       -2.49565        0.03196
N         -2.76328       -1.36430       -0.65041
H         -1.20806       -0.90174       -1.98906
N         -3.37204       -3.41752        0.34699
C         -4.00909       -1.13535       -1.33999
H         -4.35173       -3.31815        0.10309
H          0.86826       -1.51777       -2.38848
C          2.33488        0.62932        0.24674
O         -5.04573       -0.79525       -0.44088
H         -3.85927       -0.35337       -2.09328
H         -4.34932       -2.05086       -1.84072
C         -5.18476        0.49948       -0.08324
O         -4.58723        1.42609       -0.58850
N         -6.06117        0.59139        0.94240
H         -6.69063       -0.18507        1.13748
O         -6.56237        1.83211        1.22357
H         -6.11493        2.12438        2.03175
H          3.07107        0.85647        1.02767
H          2.88718        0.57589       -0.69912
N          0.66386        1.97893       -1.07869
C          1.37806        1.83217        0.19143
C          2.13552        3.17895        0.17822
C          2.47810        3.33620       -1.30298
O          1.55728        2.49724       -2.01095
H          0.67359        1.86119        1.02489
C          3.31932        3.32493        1.12694
H          1.40213        3.94977        0.45760
H          2.36888        4.37111       -1.65641
H          3.49330        2.97744       -1.53252
O          3.75978        4.66390        1.20703
H          3.00646        3.02809        2.13989
H          4.14626        2.65948        0.82493
H          4.23032        4.87672        0.39228
O          2.95955       -1.57410        1.02992
S          4.30540       -1.91354        0.11651
O          5.00033       -0.65049       -0.13961
O          4.99842       -2.83184        1.01309
O          3.76630       -2.54457       -1.11116
H         -3.08323       -4.23324        0.87796
H         -0.86343        0.40299        3.58798
H         -0.78335       -3.27614        0.92299
H          2.13378       -2.98590       -0.76768
