62
ZTX_392_solv.log	Energy: -1483138.9664464
C         -1.22091        1.78708        0.43233
N         -0.73155        2.05459        1.76279
C         -0.05227        1.15474        2.47102
C         -0.33751        2.08317       -0.80005
H         -2.05652        2.47327        0.25882
N          0.52856        1.49218        3.60767
H          0.56035        2.46447        3.89964
H         -0.94060        2.95356        2.18759
N          0.07787       -0.09700        1.98783
C          0.21375       -1.36008       -0.04248
C          1.64757       -1.08295        0.58398
C          1.31742       -0.85955        2.06262
O         -0.08307       -2.71512       -0.02881
O          0.04589       -0.79970       -1.29808
H          2.09845       -0.30268        2.59323
H          1.15846       -1.82529        2.56237
O         -0.93849        2.36041       -1.83175
C         -1.75487        0.36184        0.33947
C         -0.78976       -0.66507        0.95533
N         -1.71774       -1.60610        1.53498
C         -2.93171       -1.08067        1.68113
N         -2.98630        0.14745        1.11573
H         -1.92805        0.10798       -0.71432
N         -3.92576       -1.68534        2.28943
C         -4.22389        0.81354        0.82166
H         -4.86058       -1.29218        2.30725
H          0.71233       -1.20722       -1.87922
C          2.43729        0.09068       -0.02830
O         -4.93494        0.18224       -0.22828
H         -4.87701        0.78072        1.70062
H         -4.02141        1.86123        0.57620
C         -4.74344        0.65016       -1.47552
O         -4.02436        1.58820       -1.75661
N         -5.49408       -0.01197       -2.38770
H         -5.24093        0.10916       -3.36631
O         -6.02837       -1.23525       -2.07816
H         -6.97517       -1.08593       -1.93760
H          3.42953       -0.01693        0.42696
H          2.57095       -0.08235       -1.10467
N          1.00411        2.03388       -0.75326
C          2.02964        1.55712        0.17484
C          3.16096        2.53576       -0.21461
C          2.95881        2.67850       -1.72388
O          1.61433        2.25331       -1.98275
H          1.74410        1.78220        1.20322
C          4.57741        2.16346        0.20662
H          2.92199        3.49422        0.26914
H          3.08528        3.71314       -2.07238
H          3.62565        2.01589       -2.29628
O          5.47292        3.24108        0.03511
H          4.57953        1.91305        1.27865
H          4.92670        1.27313       -0.34452
H          5.63280        3.35457       -0.90934
O          2.46654       -2.24639        0.56419
S          3.12530       -2.84910       -0.83722
O          4.29043       -2.02390       -1.15647
O          3.42367       -4.21905       -0.43835
O          2.02118       -2.72487       -1.82377
H         -3.77759       -2.59683        2.71150
H          0.92073        0.78469        4.22019
H         -1.43094       -2.50041        1.92118
H          0.51462       -3.13374       -0.67376
