62
ZTX_143_solv.log	Energy: -1483141.6021933
C         -1.34600        1.69417        0.47513
N         -0.79360        2.05575        1.75779
C          0.02207        1.25249        2.43758
C         -0.58104        2.03273       -0.82558
H         -2.25294        2.29362        0.34106
N          0.65179        1.68509        3.51398
H          0.61308        2.66664        3.77251
H         -1.05950        2.94505        2.17107
N          0.23788        0.00329        1.98055
C          0.32555       -1.34113        0.00320
C          1.77326       -0.91080        0.49553
C          1.54584       -0.63859        1.98477
O          0.15216       -2.71447        0.09190
O          0.01252       -0.85433       -1.25588
H          2.31130        0.01777        2.41606
H          1.52268       -1.58493        2.54281
O         -1.27484        2.23131       -1.81623
C         -1.74959        0.22238        0.46718
C         -0.65482       -0.68869        1.05148
N         -1.44908       -1.67399        1.74428
C         -2.69636       -1.25680        1.94535
N         -2.90430       -0.06953        1.33010
H         -1.96433       -0.08832       -0.56327
N         -3.59015       -1.91998        2.64195
C         -4.21905        0.44976        1.07543
H         -4.55033       -1.60166        2.71840
H          0.66782       -1.23110       -1.87001
C          2.39960        0.29772       -0.22630
O         -4.90655       -0.28852        0.08253
H         -4.82188        0.37831        1.98714
H         -4.14269        1.50412        0.79001
C         -4.82137        0.14786       -1.19523
O         -4.23494        1.14778       -1.54479
N         -5.45346       -0.72979       -2.01029
H         -6.13207       -1.37827       -1.61592
O         -5.73414       -0.30350       -3.27990
H         -5.09658       -0.74786       -3.85841
H          3.43148        0.29344        0.14394
H          2.45193        0.10137       -1.30558
N          0.76074        2.09905       -0.87658
C          1.88765        1.73017       -0.02107
C          2.90135        2.79321       -0.51467
C          2.55976        2.91531       -1.99942
O          1.26161        2.32714       -2.15205
H          1.66629        1.95990        1.02161
C          4.36534        2.51594       -0.24722
H          2.63143        3.73058       -0.00628
H          2.53059        3.96061       -2.33803
H          3.24790        2.34297       -2.63847
O          4.53737        2.34578        1.14371
H          4.69431        1.62224       -0.80661
H          4.95760        3.36835       -0.62595
H          5.45196        2.08575        1.30239
O          2.68841       -1.99964        0.45590
S          3.28216       -2.60976       -0.97016
O          4.34429       -1.70785       -1.41568
O          3.72456       -3.93270       -0.54660
O          2.09731       -2.62062       -1.86763
H         -3.33022       -2.78742        3.10128
H          1.15489        1.03989        4.11435
H         -1.05354       -2.51628        2.15124
H          0.72214       -3.10526       -0.59425
