62
ZTX_221_solv.log	Energy: -1483139.7343925
C          1.56386        0.83339        0.77390
N          1.74669        1.19027       -0.61130
C          1.12727        0.55009       -1.60213
C          0.44554        1.47791        1.61385
H          2.46074        1.18842        1.29215
N          1.19889        0.99878       -2.84172
H          1.63434        1.89520       -3.03670
H          2.49504        1.84146       -0.83746
N          0.37894       -0.52998       -1.30518
C         -0.93719       -1.60641        0.37878
C         -1.82983       -0.85629       -0.68479
C         -0.91414       -0.82314       -1.91213
O         -1.22078       -2.96081        0.26834
O         -1.09362       -1.14775        1.67090
H         -1.20155       -0.05099       -2.63543
H         -0.90854       -1.80215       -2.41197
O          0.66439        1.56091        2.81822
C          1.49884       -0.68014        0.93301
C          0.55008       -1.32736       -0.08987
N          1.25172       -2.55717       -0.38860
C          2.54440       -2.46876       -0.06350
N          2.77469       -1.35214        0.65240
H          1.16705       -0.92534        1.95022
N          3.45178       -3.36035       -0.38826
C          4.00519       -1.10185        1.36119
H          4.42556       -3.24321       -0.12839
H         -2.04916       -1.25342        1.86171
C         -2.31793        0.55900       -0.30084
O          5.04401       -0.72538        0.47965
H          3.82540       -0.33364        2.12173
H          4.35914       -2.01601        1.85483
C          5.18326        0.58165        0.16927
O          4.54613        1.48472        0.66907
N          6.17211        0.72457       -0.74009
H          6.48055       -0.07539       -1.28897
O          6.28558        1.93948       -1.35523
H          7.05017        2.37636       -0.95027
H         -3.03954        0.77955       -1.09700
H         -2.89097        0.50498        0.63354
N         -0.70166        1.91210        1.06856
C         -1.38996        1.77776       -0.21560
C         -2.17877        3.10688       -0.18835
C         -2.52534        3.25443        1.29296
O         -1.61792        2.39449        1.99552
H         -0.67448        1.83689       -1.03709
C         -3.37859        3.23453       -1.11532
H         -1.45976        3.89419       -0.46406
H         -2.40291        4.28408        1.65651
H         -3.54428        2.90612        1.51848
O         -3.96627        4.51321       -1.00809
H         -3.07090        3.01254       -2.15345
H         -4.16149        2.51366       -0.83795
H         -3.30984        5.16657       -1.27964
O         -2.95291       -1.63887       -1.04708
S         -4.26684       -1.81716       -0.03600
O         -5.18882       -0.74332       -0.42026
O         -4.71659       -3.16261       -0.38110
O         -3.74539       -1.67469        1.34146
H          3.19009       -4.17089       -0.94093
H          0.84932        0.44455       -3.61644
H          0.88345       -3.24651       -1.03808
H         -0.73270       -3.42019        0.96642
