62
ZTX_28_solv.log	Energy: -1483141.1160868
C          1.01356       -1.98006        0.02397
N          0.54869       -2.38558        1.32665
C         -0.10925       -1.56020        2.13831
C          0.10161       -2.13011       -1.21665
H          1.82983       -2.65876       -0.24397
N         -0.68722       -2.01273        3.23598
H         -0.73642       -3.01088        3.41731
H          0.73744       -3.33402        1.63875
N         -0.22159       -0.26098        1.79647
C         -0.35696        1.24264       -0.07335
C         -1.78100        0.91814        0.52727
C         -1.45216        0.49923        1.96411
O         -0.01574        2.56951        0.07007
O         -0.32465        0.83632       -1.40043
H         -2.24481       -0.11176        2.41263
H         -1.28693        1.39102        2.58426
O          0.68272       -2.30690       -2.28167
C          1.57518       -0.56398        0.07570
C          0.65079        0.40884        0.83117
N          1.61166        1.24850        1.50277
C          2.83190        0.71781        1.50598
N          2.83506       -0.45039        0.82156
H          1.73366       -0.21245       -0.95241
N          3.87531        1.24756        2.10382
C          4.00841       -1.20208        0.49059
H          4.81609        0.97196        1.80182
H          0.43861        1.24900       -1.83036
C         -2.59740       -0.14628       -0.22879
O          4.62411       -0.76271       -0.70942
H          4.71619       -1.16648        1.32752
H          3.72942       -2.24550        0.31598
C          5.65015        0.10570       -0.60908
O          6.07268        0.55805        0.43917
N          6.10562        0.42106       -1.83748
H          5.86771       -0.15978       -2.63917
O          7.28870        1.09691       -1.92206
H          7.05886        2.01905       -2.11334
H         -3.59365       -0.05465        0.21918
H         -2.69160        0.14716       -1.28118
N         -1.23879       -2.07036       -1.13878
C         -2.23594       -1.63775       -0.15742
C         -3.39961       -2.55490       -0.60628
C         -3.21838       -2.60155       -2.12258
O         -1.87619       -2.16235       -2.37039
H         -1.94377       -1.95633        0.84322
C         -4.79190       -2.15546       -0.16658
H         -3.18128       -3.54917       -0.18905
H         -3.35283       -3.61346       -2.53016
H         -3.88721       -1.90381       -2.64740
O         -4.80194       -2.06923        1.24264
H         -5.08146       -1.19667       -0.63211
H         -5.50556       -2.91699       -0.52933
H         -5.66451       -1.73706        1.51642
O         -2.56942        2.09337        0.68842
S         -3.24451        2.99528       -0.53173
O         -4.21501        2.14919       -1.22873
O         -3.81984        4.08766        0.24495
O         -2.09300        3.38578       -1.37931
H          3.76116        2.13547        2.58349
H         -1.07140       -1.37130        3.92205
H          1.37964        2.15626        1.89344
H         -0.66950        3.08026       -0.46090
