62
ZTX_236_solv.log	Energy: -1483141.4050298
C          0.97425       -1.97026        0.17732
N          0.52253       -2.30258        1.50619
C         -0.08516       -1.42219        2.29987
C          0.03758       -2.13247       -1.03974
H          1.75599       -2.69321       -0.07758
N         -0.65863       -1.81251        3.42325
H         -0.73925       -2.80077        3.64358
H          0.68030       -3.24490        1.85200
N         -0.15280       -0.13336        1.91338
C         -0.24003        1.35578        0.04871
C         -1.67639        1.07593        0.64967
C         -1.33963        0.69599        2.09502
O          0.09623        2.68967        0.26377
O         -0.10758        1.01424       -1.28112
H         -2.14584        0.13866        2.58629
H         -1.11217        1.59526        2.68450
O          0.59028       -2.39267       -2.10303
C          1.58516       -0.57472        0.14791
C          0.73708        0.46091        0.91228
N          1.75997        1.25924        1.54213
C          2.96312        0.69475        1.47409
N          2.88743       -0.48790        0.82276
H          1.69498       -0.25378       -0.89608
N          4.05936        1.20840        1.98473
C          4.01194       -1.29222        0.45105
H          4.96744        0.89934        1.62060
H         -0.79622        1.52370       -1.75360
C         -2.54581        0.01048       -0.04858
O          4.56220       -0.91984       -0.80224
H          4.77266       -1.24884        1.24002
H          3.68852       -2.33118        0.33693
C          5.63245       -0.10191       -0.80205
O          6.11350        0.40757        0.19356
N          6.11088        0.02828       -2.05521
H          5.54425       -0.25345       -2.85286
O          7.01443        1.02484       -2.28936
H          7.88046        0.59407       -2.35251
H         -3.52593        0.15980        0.42027
H         -2.66118        0.26721       -1.10943
N         -1.29216       -1.96998       -0.95187
C         -2.24970       -1.49262        0.04520
C         -3.46209       -2.35769       -0.36872
C         -3.31280       -2.43650       -1.88794
O         -1.95496       -2.06935       -2.16827
H         -1.94974       -1.80921        1.04481
C         -4.84042       -1.90575        0.09104
H         -3.28260       -3.35712        0.05758
H         -3.50381       -3.44486       -2.28053
H         -3.95777       -1.71295       -2.40800
O         -5.83221       -2.82770       -0.30610
H         -4.83607       -1.75769        1.18641
H         -5.10982       -0.94623       -0.37443
H         -5.64100       -3.67176        0.12121
O         -2.39848        2.30124        0.71112
S         -3.16497        2.96282       -0.64033
O         -3.14191        4.37675       -0.28141
O         -2.29852        2.60182       -1.78072
O         -4.48991        2.34607       -0.67736
H          4.00405        2.11208        2.44509
H         -0.99799       -1.13282        4.09588
H          1.58981        2.21295        1.84679
H         -0.69751        3.15712        0.56942
