62
ZTX_371_solv.log	Energy: -1483136.6560946
C         -1.42707        1.41456       -0.37578
N         -1.34172        1.24433        1.05359
C         -0.65134        0.25520        1.61875
C         -0.38837        2.26864       -1.13453
H         -2.34601        1.97868       -0.56880
N         -0.45284        0.23298        2.92370
H         -0.72281        1.02630        3.49732
H         -1.85546        1.88613        1.65100
N         -0.11617       -0.69734        0.83020
C          0.77648       -1.17904       -1.33449
C          1.91362       -0.92787       -0.27142
C          1.20539       -1.27398        1.04862
O          0.89246       -2.48555       -1.77599
O          0.77229       -0.27588       -2.38448
H          1.69240       -0.82747        1.92178
H          1.14529       -2.36112        1.18965
O         -0.80123        2.82491       -2.14756
C         -1.55750        0.06319       -1.07460
C         -0.57342       -0.98349       -0.52658
N         -1.39004       -2.18034       -0.54334
C         -2.69371       -1.87863       -0.59128
N         -2.86112       -0.56924       -0.86773
H         -1.39089        0.19895       -2.15084
N         -3.67099       -2.73676       -0.42576
C         -4.06892        0.02202       -1.37859
H         -4.61865       -2.37382       -0.27444
H          1.60093       -0.36549       -2.87730
C          2.51303        0.49727       -0.27790
O         -4.76061        0.77784       -0.40199
H         -3.79928        0.73609       -2.16453
H         -4.72177       -0.75159       -1.80156
C         -5.62945        0.12116        0.38946
O         -5.83407       -1.07788        0.34509
N         -6.26535        0.99237        1.19803
H         -5.89737        1.93235        1.33010
O         -6.98032        0.48091        2.24269
H         -7.91252        0.53402        1.98249
H          3.39093        0.37960        0.36761
H          2.89148        0.70412       -1.28924
N          0.88995        2.37303       -0.73938
C          1.76618        1.73326        0.24429
C          2.70851        2.92766        0.51473
C          2.81953        3.57684       -0.86324
O          1.68604        3.11029       -1.60795
H          1.21629        1.53612        1.16633
C          4.05030        2.63319        1.16851
H          2.15629        3.60741        1.18261
H          2.79510        4.67440       -0.81976
H          3.72193        3.25268       -1.40321
O          4.77716        3.82164        1.39554
H          3.89097        2.06653        2.10379
H          4.67591        2.01474        0.50859
H          4.27826        4.36260        2.01991
O          2.98626       -1.78717       -0.61389
S          3.97520       -2.49653        0.52225
O          5.14583       -2.80689       -0.29562
O          4.19140       -1.47541        1.56069
O          3.23170       -3.67025        0.99826
H         -3.45502       -3.69982       -0.18685
H         -0.04524       -0.57962        3.37463
H         -1.04577       -3.06154       -0.16967
H          0.17487       -2.65106       -2.40460
