62
ZTX_290_solv.log	Energy: -1483140.8096614
C         -1.59404        0.79562       -0.86133
N         -1.79068        1.18537        0.51295
C         -1.13103        0.60395        1.51311
C         -0.51699        1.48546       -1.72569
H         -2.50972        1.08881       -1.38555
N         -1.22163        1.06988        2.74462
H         -1.70213        1.94560        2.92750
H         -2.58823        1.78068        0.72485
N         -0.31802       -0.43400        1.23362
C          1.03872       -1.45508       -0.45954
C          1.90392       -0.63557        0.58004
C          1.00372       -0.60071        1.81854
O          1.31746       -2.80301       -0.43251
O          1.22495       -0.90666       -1.72218
H          1.25077        0.22631        2.49489
H          1.08102       -1.55077        2.36556
O         -0.74272        1.52016       -2.93044
C         -1.45869       -0.71898       -0.97114
C         -0.45475       -1.28434        0.04970
N         -1.07906       -2.54068        0.39501
C         -2.37668       -2.53964        0.08835
N         -2.68956       -1.44572       -0.63594
H         -1.15393       -0.97628       -1.99398
N         -3.22163       -3.48380        0.43569
C         -3.94792       -1.27901       -1.31979
H         -4.20313       -3.43861        0.18242
H          0.93255       -1.54991       -2.38353
C          2.32927        0.77384        0.13089
O         -4.98855       -0.96023       -0.41715
H         -3.83399       -0.50843       -2.09125
H         -4.25644       -2.21809       -1.79652
C         -5.15892        0.33332       -0.06838
O         -4.60442        1.27247       -0.59955
N         -6.00961        0.40953        0.97902
H         -6.60420       -0.38511        1.20700
O         -6.53870        1.63688        1.26579
H         -6.07303        1.95104        2.05535
H          3.07217        1.05825        0.88504
H          2.85656        0.70921       -0.82815
N          0.58999        2.03115       -1.19291
C          1.32050        1.93091        0.07141
C          2.00572        3.31828        0.04114
C          2.29572        3.51115       -1.44697
O          1.45827        2.57181       -2.13416
H          0.62375        1.93165        0.91023
C          3.21437        3.49950        0.93419
H          1.23889        4.04281        0.35294
H          2.06307        4.52887       -1.79104
H          3.33547        3.26563       -1.70818
O          2.82703        3.21039        2.26084
H          4.03921        2.84419        0.60259
H          3.57109        4.54055        0.83564
H          3.61297        3.24769        2.81757
O          3.05019       -1.36599        1.00546
S          4.39624       -1.69549        0.08914
O          5.02199       -0.41908       -0.26120
O          5.14975       -2.51897        1.02792
O          3.87055       -2.43086       -1.08544
H         -2.89992       -4.26750        0.99521
H         -0.83322        0.55070        3.52531
H         -0.64077       -3.22314        1.00597
H          2.25866       -2.89576       -0.70659
