62
ZTX_84_solv.log	Energy: -1483144.1768019
C          1.37071        1.22264        0.65197
N          1.48191        1.52880       -0.75297
C          0.89888        0.79120       -1.69609
C          0.21738        1.80967        1.49553
H          2.23946        1.67808        1.13907
N          0.86338        1.20613       -2.94901
H          1.17329        2.14345       -3.18759
H          2.05512        2.31949       -1.03353
N          0.29590       -0.36046       -1.34189
C         -0.83201       -1.53021        0.41130
C         -1.84602       -0.91440       -0.64618
C         -0.97291       -0.81057       -1.89850
O         -0.85984       -2.91655        0.37581
O         -1.01219       -1.03402        1.69278
H         -1.36544       -0.09778       -2.63334
H         -0.87259       -1.79785       -2.37074
O          0.47708        2.01993        2.67585
C          1.44712       -0.28499        0.88528
C          0.59049       -1.09101       -0.10882
N          1.45263       -2.21775       -0.37912
C          2.71479       -1.97876       -0.01981
N          2.79060       -0.82679        0.67990
H          1.12277       -0.50474        1.91046
N          3.73503       -2.76275       -0.27978
C          3.88468       -0.43400        1.52393
H          4.68149       -2.38747       -0.15657
H         -1.91284       -1.29100        1.96332
C         -2.49584        0.43343       -0.26667
O          4.68636        0.57693        0.93978
H          3.47388        0.01024        2.43743
H          4.49627       -1.30526        1.78939
C          5.68443        0.18366        0.12712
O          5.93202       -0.97447       -0.15318
N          6.39127        1.25522       -0.28715
H          5.99674        2.18998       -0.20193
O          7.26101        1.07337       -1.32461
H          8.14761        1.06036       -0.93328
H         -3.01130        0.33415        0.69825
H         -3.28014        0.54441       -1.02509
N         -1.00438        2.03810        0.98627
C         -1.71589        1.75860       -0.26127
C         -2.64741        2.99200       -0.27088
C         -2.95243        3.19117        1.21388
O         -1.93436        2.47052        1.92226
H         -1.03868        1.85794       -1.11042
C         -3.87696        2.92360       -1.15473
H         -2.03754        3.83698       -0.62364
H         -2.92379        4.24774        1.51415
H         -3.91961        2.75380        1.50256
O         -4.47736        4.20126       -1.13647
H         -3.57700        2.63159       -2.17858
H         -4.57924        2.15861       -0.77962
H         -5.31452        4.14093       -1.61033
O         -2.87412       -1.83682       -0.99005
S         -4.09278       -2.25152        0.05956
O         -3.39183       -2.42726        1.35858
O         -5.05645       -1.15118        0.06184
O         -4.56502       -3.49353       -0.53884
H          3.59233       -3.58774       -0.85405
H          0.54590        0.59261       -3.69203
H          1.17324       -2.98577       -0.98183
H         -1.72177       -3.17964        0.74484
