62
ZTX_489_solv.log	Energy: -1483138.5125500
C         -1.64534        1.12851       -0.57076
N         -1.65914        1.07002        0.87048
C         -0.85576        0.25496        1.55242
C         -0.70608        2.10654       -1.30491
H         -2.62882        1.51257       -0.85949
N         -0.78588        0.31744        2.86928
H         -1.25483        1.06511        3.37178
H         -2.43468        1.51895        1.35244
N         -0.06933       -0.59299        0.86387
C          1.05624       -1.01617       -1.20218
C          2.04200       -0.51943       -0.06318
C          1.30402       -0.91179        1.23113
O          1.40704       -2.26012       -1.69201
O          0.95558       -0.13929       -2.26549
H          1.62713       -0.32533        2.09877
H          1.39835       -1.97849        1.46766
O         -1.10471        2.51146       -2.39231
C         -1.49453       -0.26816       -1.16435
C         -0.35873       -1.05771       -0.49139
N         -0.91444       -2.39131       -0.46273
C         -2.23957       -2.37135       -0.61186
N         -2.66007       -1.13182       -0.93570
H         -1.30256       -0.18670       -2.24191
N         -3.01880       -3.42082       -0.47777
C         -3.98409       -0.84776       -1.43213
H         -4.02457       -3.34990       -0.59006
H          1.82337       -0.06734       -2.68784
C          2.37580        0.98635       -0.09210
O         -4.94610       -0.90110       -0.39797
H         -3.97454        0.13280       -1.92254
H         -4.30014       -1.60767       -2.15757
C         -5.10732        0.19051        0.38002
O         -4.61079        1.27534        0.16338
N         -5.87516       -0.12697        1.44707
H         -6.44779       -0.96892        1.42097
O         -6.39937        0.91103        2.16686
H         -5.89158        0.94703        2.99124
H          3.20368        1.07282        0.62147
H          2.80031        1.22681       -1.07715
N          0.47549        2.48937       -0.79366
C          1.35940        2.06929        0.29434
C          2.00634        3.44528        0.59161
C          2.11569        4.06568       -0.80129
O          1.20866        3.32399       -1.62903
H          0.77272        1.80230        1.17407
C          3.27443        3.48886        1.42722
H          1.24849        4.00270        1.16078
H          1.83232        5.12798       -0.80857
H          3.11760        3.94827       -1.23397
O          4.39766        3.07773        0.67851
H          3.40731        4.52457        1.78689
H          3.12918        2.85221        2.31900
H          5.16097        3.07457        1.26688
O          3.31655       -1.11729       -0.27141
S          3.86226       -2.44984        0.54265
O          2.84277       -3.48952        0.24993
O          5.14994       -2.66736       -0.10267
O          3.91536       -2.07136        1.95689
H         -2.61729       -4.31923       -0.22794
H         -0.28264       -0.38871        3.39654
H         -0.39515       -3.19744       -0.12641
H          1.87262       -2.80150       -1.01628
