62
ZTX_238_solv.log	Energy: -1483139.4408185
C          1.57102        0.82161        0.75116
N          1.74570        1.17192       -0.63691
C          1.11525        0.53276       -1.62138
C          0.46218        1.47653        1.59629
H          2.47352        1.17314        1.26286
N          1.17814        0.97878       -2.86238
H          1.61532        1.87311       -3.06304
H          2.47988        1.83588       -0.87151
N          0.36508       -0.54378       -1.31656
C         -0.94679       -1.60601        0.38043
C         -1.84194       -0.85333       -0.67930
C         -0.93455       -0.83025       -1.91299
O         -1.23887       -2.95893        0.27540
O         -1.09213       -1.14301        1.67227
H         -1.22218       -0.05875       -2.63683
H         -0.93899       -1.81097       -2.40944
O          0.68985        1.56333        2.79869
C          1.49762       -0.69110        0.91606
C          0.53920       -1.33685       -0.09875
N          1.23208       -2.57158       -0.39735
C          2.52720       -2.48926       -0.08077
N          2.76777       -1.37261        0.63193
H          1.16989       -0.92982        1.93608
N          3.42793       -3.38602       -0.40949
C          4.00207       -1.12865        1.33582
H          4.40405       -3.27255       -0.15684
H         -2.04715       -1.24242        1.86941
C         -2.31872        0.56637       -0.29658
O          5.03557       -0.73866        0.45330
H          3.82539       -0.36984        2.10654
H          4.36058       -2.04767        1.81675
C          5.17656        0.57354        0.16693
O          4.58410        1.47247        0.72508
N          6.04868        0.72047       -0.85618
H          6.67514       -0.04516       -1.09792
O          6.55293        1.97395       -1.06790
H          6.09473        2.31784       -1.84923
H         -3.04494        0.78847       -1.08814
H         -2.88521        0.51889        0.64216
N         -0.68570        1.91558        1.05654
C         -1.38259        1.77968       -0.22283
C         -2.16151        3.11455       -0.19736
C         -2.49913        3.27113        1.28501
O         -1.59259        2.40931        1.98664
H         -0.67183        1.83029       -1.04893
C         -3.36443        3.24783       -1.11950
H         -1.43774        3.89507       -0.47994
H         -2.36873        4.30174        1.64301
H         -3.51880        2.92975        1.51773
O         -3.94038        4.53215       -1.01618
H         -3.06327        3.01783       -2.15781
H         -4.15242        2.53533       -0.83500
H         -3.27909        5.17832       -1.29310
O         -2.97233       -1.62990       -1.03162
S         -4.27994       -1.79791       -0.01071
O         -5.19876       -0.72033       -0.39197
O         -4.73937       -3.14204       -0.34797
O         -3.74792       -1.65358        1.36252
H          3.15881       -4.19637       -0.95887
H          0.81925        0.42467       -3.63298
H          0.85638       -3.26012       -1.04342
H         -0.75078       -3.41892        0.97309
