62
ZTX_330_solv.log	Energy: -1483144.2077569
C          1.56329        0.85910        1.05286
N          1.81935        1.27806       -0.30360
C          1.26157        0.66463       -1.34738
C          0.40530        1.47939        1.86069
H          2.42125        1.19636        1.64389
N          1.42104        1.14347       -2.56771
H          1.89209        2.03172       -2.71052
H          2.64960        1.86076       -0.47071
N          0.47767       -0.41163       -1.13185
C         -0.89779       -1.58777        0.42087
C         -1.75314       -0.75367       -0.61805
C         -0.79379       -0.64692       -1.80761
O         -1.11852       -2.94545        0.21114
O         -1.11589       -1.23889        1.73894
H         -1.04463        0.18102       -2.48158
H         -0.77948       -1.58654       -2.37792
O          0.55944        1.51911        3.07652
C          1.49643       -0.66334        1.13984
C          0.59898       -1.27241        0.04888
N          1.33551       -2.47411       -0.27437
C          2.62113       -2.36674        0.06538
N          2.79351       -1.29968        0.86921
H          1.13768       -0.96015        2.13393
N          3.55562       -3.21358       -0.30398
C          4.01967       -0.84778        1.45623
H          4.53635       -2.98859       -0.16014
H         -2.07615       -1.35396        1.88624
C         -2.26332        0.62811       -0.16928
O          4.51516        0.29315        0.77307
H          3.83083       -0.51287        2.48204
H          4.76189       -1.65423        1.47555
C          5.09498        0.08465       -0.41936
O          5.48309       -0.99472       -0.81709
N          5.25619        1.24032       -1.11377
H          5.50649        1.15718       -2.09690
O          4.45979        2.32130       -0.83267
H          4.97442        2.91342       -0.26230
H         -2.98980        0.87945       -0.95039
H         -2.82553        0.53225        0.76804
N         -0.69869        1.95718        1.26539
C         -1.32766        1.83674       -0.04725
C         -2.08892        3.18151       -0.05411
C         -2.52491        3.31362        1.40222
O         -1.65078        2.45448        2.14986
H         -0.57731        1.88687       -0.83532
C         -3.20858        3.32254       -1.07115
H         -1.33365        3.95353       -0.26942
H         -2.43159        4.34093        1.78077
H         -3.55254        2.95546        1.56464
O         -2.77090        3.02530       -2.37992
H         -4.03236        2.63015       -0.84327
H         -3.62204        4.34424       -1.00439
H         -2.07233        3.65022       -2.61082
O         -2.85279       -1.54766       -1.05025
S         -4.25477       -1.71883       -0.12660
O         -5.11723       -0.60598       -0.52085
O         -4.69358       -3.03906       -0.56663
O         -3.79565       -1.65885        1.27613
H          3.32293       -3.94376       -0.97032
H          1.11933        0.61015       -3.37655
H          0.97184       -3.17761       -0.90945
H         -1.86876       -3.03667       -0.39754
