62
ZTX_227_solv.log	Energy: -1483135.9355318
C         -1.33875        1.63883        0.60160
N         -0.83943        1.85602        1.93737
C         -0.09971        0.95701        2.58452
C         -0.49500        2.04126       -0.62831
H         -2.20997        2.29100        0.47918
N          0.49203        1.26887        3.72304
H          0.48542        2.22663        4.06080
H         -1.08059        2.72151        2.41192
N          0.07748       -0.26190        2.03651
C          0.23709       -1.44087       -0.04483
C          1.65714       -1.10423        0.55414
C          1.35498       -0.96860        2.04954
O          0.11431       -2.82362       -0.05276
O          0.00527       -0.89478       -1.29020
H          2.11986       -0.39649        2.58740
H          1.25541       -1.96166        2.50951
O         -1.12820        2.32556       -1.63871
C         -1.80059        0.19648        0.43490
C         -0.78636       -0.81351        0.99192
N         -1.66833       -1.82041        1.53553
C         -2.91266       -1.36940        1.68675
N         -3.02513       -0.11732        1.18540
H         -1.96025       -0.01352       -0.63166
N         -3.87681       -2.06023        2.24803
C         -4.28090        0.48932        0.84180
H         -4.82630       -1.70806        2.29962
H          0.72843       -1.24016       -1.85514
C          2.36435        0.15040       -0.00735
O         -4.73799        0.02429       -0.41433
H         -5.03777        0.22875        1.58907
H         -4.16917        1.57879        0.82666
C         -4.62963        0.85895       -1.46696
O         -4.26363        2.01511       -1.40026
N         -4.94130        0.24632       -2.63271
H         -5.12684        0.84331       -3.43603
O         -5.60886       -0.94942       -2.63074
H         -4.94985       -1.62316       -2.85550
H          3.37094        0.05863        0.41903
H          2.47536        0.04669       -1.09444
N          0.84765        2.06935       -0.60030
C          1.90755        1.58530        0.28607
C          2.99445        2.62586       -0.07021
C          2.74760        2.87042       -1.55932
O          1.42698        2.37869       -1.82484
H          1.63223        1.74611        1.32901
C          4.43749        2.27630        0.26391
H          2.73676        3.54022        0.48669
H          2.79953        3.93492       -1.82722
H          3.43902        2.29918       -2.19617
O          5.30486        3.34117       -0.06075
H          4.51461        1.99926        1.33111
H          4.77455        1.41375       -0.32958
H          5.06800        4.09627        0.49187
O          2.53499       -2.20810        0.42721
S          3.21128       -2.63685       -1.03509
O          4.49981       -1.93846       -1.07428
O          3.30482       -4.08730       -0.89761
O          2.26581       -2.17630       -2.07602
H         -3.68329       -2.98356        2.62385
H          0.93491        0.55449        4.29151
H         -1.32930       -2.69973        1.91609
H         -0.69309       -3.04437       -0.53883
