62
ZTX_404_solv.log	Energy: -1483138.1561372
C          1.12137       -1.92269        0.22309
N          0.69865       -2.24871        1.56382
C          0.03028       -1.39228        2.33515
C          0.19037       -2.18480       -0.98234
H          1.95085       -2.59634       -0.01562
N         -0.51487       -1.78996        3.47017
H         -0.52484       -2.77465        3.71908
H          0.91987       -3.16880        1.93392
N         -0.12603       -0.12256        1.91406
C         -0.32770        1.29985       -0.00092
C         -1.73304        0.95330        0.62752
C         -1.36332        0.63439        2.07913
O         -0.13545        2.66631        0.16294
O         -0.18295        0.91312       -1.31665
H         -2.12947        0.03924        2.58961
H         -1.19105        1.56261        2.64173
O          0.75254       -2.43701       -2.04336
C          1.63681       -0.48894        0.15489
C          0.71344        0.50091        0.89107
N          1.67685        1.39119        1.49371
C          2.91060        0.89038        1.48208
N          2.92619       -0.29527        0.83254
H          1.72873       -0.18862       -0.89694
N          3.95530        1.46471        2.03446
C          4.11643       -1.00141        0.46567
H          4.89528        1.20268        1.71626
H         -0.91612        1.36089       -1.79051
C         -2.52009       -0.19777       -0.03930
O          4.67005       -0.54258       -0.75873
H          4.85215       -0.92848        1.27541
H          3.87512       -2.05640        0.30725
C          5.68880        0.32731       -0.69470
O          6.13663        0.79245        0.34229
N          6.15046        0.67675       -1.91203
H          7.04058        1.16930       -1.95584
O          5.83025       -0.06456       -3.01557
H          5.16452        0.44770       -3.49910
H         -3.52345       -0.10752        0.39127
H         -2.63347        0.01714       -1.10973
N         -1.14511       -2.12005       -0.88241
C         -2.12522       -1.67280        0.10855
C         -3.26363       -2.65186       -0.25956
C         -3.16489       -2.69027       -1.78078
O         -1.81269       -2.32054       -2.08738
H         -1.79537       -1.93562        1.11422
C         -4.65501       -2.43012        0.32710
H         -2.93871       -3.63036        0.12574
H         -3.36644       -3.68895       -2.19249
H         -3.82099       -1.95369       -2.26858
O         -5.35814       -1.29959       -0.13577
H         -5.24026       -3.34991        0.15228
H         -4.55548       -2.31575        1.41711
H         -5.56762       -1.42155       -1.06895
O         -2.56137        2.10192        0.67490
S         -3.27861        2.73653       -0.68889
O         -4.60013        2.10627       -0.75171
O         -3.29354        4.16205       -0.37244
O         -2.40291        2.36841       -1.82422
H          3.83156        2.36678        2.48453
H         -0.89992       -1.11634        4.12392
H          1.41917        2.26748        1.93799
H          0.66338        2.91274       -0.32477
