62
ZTX_325_solv.log	Energy: -1483138.1763304
C         -1.10001        1.73421        0.69671
N         -0.52632        1.50554        1.99929
C          0.17541        0.41105        2.29036
C         -0.29150        2.46024       -0.40435
H         -1.92348        2.44374        0.83358
N          0.83496        0.31939        3.43032
H          0.90467        1.12306        4.04776
H         -0.68895        2.19235        2.73055
N          0.24674       -0.58275        1.38229
C          0.26096       -1.02346       -0.96474
C          1.71883       -0.95673       -0.37503
C          1.48242       -1.30587        1.10355
O         -0.01558       -2.30009       -1.41461
O          0.13167       -0.07789       -1.97043
H          2.29360       -0.96730        1.75594
H          1.34294       -2.38665        1.23655
O         -0.95715        3.06651       -1.23723
C         -1.66934        0.43809        0.13114
C         -0.69027       -0.74153        0.26805
N         -1.59868       -1.83371        0.51369
C         -2.80421       -1.41042        0.88631
N         -2.85442       -0.05844        0.84570
H         -1.92240        0.59673       -0.92580
N         -3.79216       -2.19497        1.25292
C         -4.02399        0.72889        1.09406
H         -4.75267       -1.83666        1.21348
H         -0.65260       -0.29060       -2.49674
C          2.47756        0.36704       -0.58556
O         -4.79718        0.95732       -0.07251
H         -4.62746        0.25133        1.87541
H         -3.72275        1.72017        1.44493
C         -5.82555        0.12244       -0.31738
O         -6.12737       -0.82671        0.38242
N         -6.44072        0.47432       -1.46399
H         -6.29444        1.39987       -1.86215
O         -7.64605       -0.10576       -1.73847
H         -7.47158       -0.77990       -2.41268
H          3.50224        0.10651       -0.29334
H          2.49361        0.57173       -1.66455
N          1.05010        2.43752       -0.44502
C          2.12359        1.65527        0.17173
C          3.24446        2.71348        0.09941
C          2.96828        3.37171       -1.25025
O          1.58574        3.11845       -1.53456
H          1.90653        1.48219        1.22706
C          4.67320        2.22385        0.30021
H          3.03810        3.44006        0.89925
H          3.13831        4.45719       -1.23838
H          3.56206        2.91775       -2.05875
O          5.57165        3.29610        0.48930
H          4.71428        1.60485        1.20972
H          4.99289        1.59153       -0.54570
H          5.71446        3.72419       -0.36303
O          2.44441       -1.93012       -1.11338
S          3.63296       -2.90290       -0.42946
O          2.88965       -4.01443        0.17444
O          4.40721       -3.25297       -1.61586
O          4.32006       -2.04039        0.54143
H         -3.64321       -3.19961        1.25469
H          1.25611       -0.55776        3.71840
H         -1.33295       -2.80754        0.40639
H          0.83322       -2.66910       -1.71718
