62
ZTX_385_solv.log	Energy: -1483139.8669539
C         -1.11004        1.79660        0.65497
N         -0.50059        1.62350        1.95015
C          0.24924        0.56427        2.25096
C         -0.34878        2.51507       -0.48396
H         -1.95314        2.48215        0.79305
N          0.93869        0.52545        3.37649
H          0.99609        1.34741        3.97040
H         -0.66755        2.32470        2.66663
N          0.33487       -0.44710        1.36477
C          0.29263       -0.96839       -0.96444
C          1.76422       -0.84710       -0.41958
C          1.58259       -1.14620        1.07803
O          0.03647       -2.26378       -1.37017
O          0.10962       -0.05612       -1.99233
H          2.40341       -0.75477        1.68786
H          1.48041       -2.22385        1.26010
O         -1.05011        3.08925       -1.31028
C         -1.65033        0.46762        0.13811
C         -0.63047       -0.67535        0.28810
N         -1.49473       -1.78649        0.60020
C         -2.70876       -1.39085        0.97434
N         -2.80696       -0.04281        0.88765
H         -1.92846        0.58777       -0.91763
N         -3.66457       -2.19572        1.37987
C         -4.01938        0.69952        1.06417
H         -4.63879       -1.87647        1.34692
H         -0.67614       -0.31184       -2.49665
C          2.48032        0.48866       -0.68853
O         -4.79447        0.78387       -0.12130
H         -4.60481        0.26056        1.88073
H         -3.77177        1.73138        1.32935
C         -5.80828       -0.09042       -0.27712
O         -6.08150       -0.97966        0.50799
N         -6.44167        0.14609       -1.44333
H         -6.32296        1.03904       -1.91808
O         -7.63448       -0.48420       -1.65426
H         -7.45277       -1.19988       -2.28227
H          3.51603        0.26737       -0.40477
H          2.46987        0.66424       -1.77261
N          0.99111        2.51273       -0.56700
C          2.09901        1.78071        0.04556
C          3.17827        2.88094       -0.06597
C          2.85412        3.51389       -1.41590
O          1.48646        3.17236       -1.68716
H          1.90848        1.62144        1.10699
C          4.62203        2.43912        0.10048
H          2.95171        3.60824        0.72944
H          2.95805        4.60777       -1.40714
H          3.46382        3.09511       -2.23063
O          4.82073        1.73244        1.30587
H          4.92175        1.76822       -0.71777
H          5.27399        3.32839        0.03994
H          4.60611        2.32473        2.03695
O          2.49423       -1.82457       -1.14861
S          3.69934       -2.77443       -0.46202
O          4.44296       -3.16483       -1.65543
O          4.40948       -1.87965        0.46120
O          2.97223       -3.86563        0.19711
H         -3.48070       -3.19428        1.40686
H          1.40690       -0.32535        3.67074
H         -1.19964       -2.75456        0.52012
H          0.88615       -2.62074       -1.68422
