62
ZTX_517_solv.log	Energy: -1483132.0734181
C         -1.68672        0.75306        1.07610
N         -0.99047        0.49662        2.31222
C          0.03829       -0.34536        2.39515
C         -1.22242        1.87983        0.12573
H         -2.68664        1.11115        1.34634
N          0.75931       -0.41957        3.49835
H          0.61724        0.24757        4.25070
H         -1.31657        0.95575        3.15828
N          0.36577       -1.08667        1.31770
C          0.36607       -1.13637       -1.07512
C          1.77193       -0.71991       -0.49560
C          1.74233       -1.34340        0.91030
O          0.52698       -2.32600       -1.76394
O         -0.23577       -0.16454       -1.85607
H          2.45365       -0.87419        1.59802
H          1.94573       -2.42102        0.86587
O         -2.09813        2.38460       -0.56993
C         -1.84292       -0.53539        0.27514
C         -0.54373       -1.35195        0.20752
N         -1.06041       -2.70066        0.26606
C         -2.32022       -2.73512        0.70698
N         -2.80035       -1.48233        0.86074
H         -2.16038       -0.28926       -0.74681
N         -2.97374       -3.84538        0.95512
C         -4.19929       -1.14569        0.94347
H         -3.93362       -3.83750        1.28222
H          0.33009        0.01399       -2.62098
C          2.04332        0.80205       -0.47347
O         -4.68984       -0.79320       -0.33392
H         -4.76879       -2.00795        1.30436
H         -4.34413       -0.31495        1.64365
C         -4.96632        0.51695       -0.56111
O         -5.08784        1.35675        0.30361
N         -5.04336        0.73455       -1.88943
H         -5.11159       -0.03641       -2.54978
O         -5.54159        1.93340       -2.31086
H         -4.77090        2.49949       -2.47300
H          3.11353        0.84211       -0.23991
H          1.93292        1.18533       -1.49789
N          0.05937        2.27211        0.05093
C          1.35989        1.77094        0.50280
C          2.09530        3.12472        0.60929
C          1.51638        3.90831       -0.56812
O          0.29061        3.24741       -0.91222
H          1.28025        1.36809        1.51351
C          3.60986        3.08732        0.65244
H          1.75345        3.58991        1.54590
H          1.30337        4.95645       -0.31654
H          2.16769        3.86958       -1.45392
O          4.05314        4.40160        0.91765
H          3.93773        2.38181        1.43856
H          4.01545        2.72710       -0.30893
H          5.01305        4.41329        0.83200
O          2.74795       -1.26284       -1.36671
S          4.22549       -1.81774       -0.83512
O          4.99147       -1.77820       -2.07881
O          4.66352       -0.86523        0.19881
O          3.96494       -3.16798       -0.31890
H         -2.51090       -4.74088        0.83313
H          1.46153       -1.14315        3.61157
H         -0.46134       -3.52003        0.20907
H         -0.33546       -2.57929       -2.12400
