62
ZTX_103_solv.log	Energy: -1483140.6269996
C          1.60586        0.79862        0.69827
N          1.74954        1.16603       -0.68966
C          1.03361        0.59773       -1.65830
C          0.58072        1.51439        1.60076
H          2.54932        1.08129        1.17801
N          1.05403        1.08000       -2.88692
H          1.52578        1.95699       -3.08565
H          2.49923        1.80604       -0.94017
N          0.23918       -0.44512       -1.34596
C         -1.02439       -1.55257        0.35568
C         -1.94372       -0.70139       -0.60247
C         -1.10496       -0.63262       -1.88158
O         -1.36500       -2.88496        0.16304
O         -1.09793       -1.18472        1.68387
H         -1.39396        0.20213       -2.53143
H         -1.18583       -1.57439       -2.44250
O          0.88174        1.60008        2.78724
C          1.45111       -0.71141        0.83990
C          0.44687       -1.29419       -0.17320
N          1.10088       -2.52876       -0.54911
C          2.39549       -2.52079       -0.22250
N          2.68441       -1.44896        0.53855
H          1.12282       -0.94855        1.85983
N          3.25412       -3.44661       -0.58402
C          3.90822       -1.31523        1.28956
H          4.23587       -3.38663       -0.33478
H         -2.04707       -1.27280        1.91531
C         -2.33788        0.70783       -0.10786
O          4.99106       -0.94973        0.45807
H          3.75232       -0.58376        2.09103
H          4.19179       -2.27838        1.73213
C          5.22982        0.36378        0.25422
O          4.64552        1.26926        0.81076
N          6.25141        0.50602       -0.61882
H          6.52311       -0.27035       -1.21855
O          6.46083        1.75237       -1.13874
H          7.22765        2.11410       -0.66942
H         -3.13665        0.98260       -0.80605
H         -2.79624        0.63893        0.88694
N         -0.57502        2.00333        1.12416
C         -1.35128        1.88185       -0.10810
C         -2.05580        3.25889       -0.06674
C         -2.29840        3.46012        1.42711
O         -1.39853        2.56352        2.09364
H         -0.69182        1.88621       -0.97530
C         -3.29434        3.41225       -0.92296
H         -1.30975        3.99109       -0.40988
H         -2.09239        4.48950        1.75225
H         -3.31840        3.17840        1.72753
O         -2.94578        3.10410       -2.25604
H         -4.10102        2.75378       -0.55482
H         -3.65967        4.45084       -0.83096
H         -3.75008        3.11735       -2.78708
O         -3.12138       -1.41521       -0.93742
S         -4.38012       -1.59261        0.13983
O         -5.26588       -0.45261       -0.11916
O         -4.92020       -2.89003       -0.25551
O         -3.77098       -1.56418        1.48786
H          2.94624       -4.22252       -1.16193
H          0.62801        0.56843       -3.65301
H          0.69805       -3.17122       -1.22556
H         -0.83838       -3.41549        0.77760
