62
ZTX_348_solv.log	Energy: -1483138.3752509
C         -1.60054        0.80093       -0.69228
N         -1.73624        1.17922        0.69349
C         -1.01632        0.61835        1.66330
C         -0.57597        1.50468       -1.60491
H         -2.54503        1.08285       -1.17087
N         -1.02610        1.11440        2.88672
H         -1.49462        1.99446        3.07935
H         -2.47449        1.83302        0.94199
N         -0.22908       -0.43159        1.35681
C          1.02398       -1.55986       -0.33920
C          1.95059       -0.70452        0.60917
C          1.11545       -0.62333        1.88977
O          1.35888       -2.89180       -0.13509
O          1.09503       -1.20486       -1.67076
H          1.41064        0.21198        2.53647
H          1.19258       -1.56272        2.45519
O         -0.88357        1.58561       -2.79019
C         -1.44888       -0.71046       -0.82422
C         -0.44502       -1.28940        0.19170
N         -1.10370       -2.51747        0.57967
C         -2.39690       -2.51157        0.24853
N         -2.68341       -1.44423       -0.52013
H         -1.12074       -0.95371       -1.84275
N         -3.25723       -3.43506        0.61160
C         -3.89905       -1.32266       -1.28670
H         -4.23878       -3.37312        0.36184
H          2.04266       -1.30125       -1.90516
C          2.34717        0.69807        0.09651
O         -4.99334       -0.95617       -0.47100
H         -3.73737       -0.59669       -2.09211
H         -4.17394       -2.29018       -1.72494
C         -5.22019        0.35722       -0.25278
O         -4.66193        1.26322       -0.83390
N         -6.13692        0.49707        0.73159
H         -6.72642       -0.29345        0.98582
O         -6.71986        1.72642        0.86984
H         -6.32183        2.12357        1.65894
H          3.16589        0.97194        0.77291
H          2.79065        0.61335       -0.90373
N          0.58769        1.98395       -1.13955
C          1.36515        1.87696        0.09242
C          2.07176        3.25083        0.02510
C          2.36381        3.37865       -1.46493
O          1.40805        2.53286       -2.12115
H          0.71072        1.89492        0.96397
C          3.27625        3.47302        0.92489
H          1.30977        3.99470        0.30258
H          2.24461        4.40698       -1.83302
H          3.36799        3.01051       -1.72561
O          2.94118        3.40695        2.29453
H          4.09318        2.77514        0.67182
H          3.65946        4.48715        0.73643
H          2.83735        2.48128        2.54477
O          3.12605       -1.42010        0.94621
S          4.38000       -1.61487       -0.13460
O          5.27297       -0.47797        0.11217
O          4.91317       -2.91233        0.26941
O          3.76569       -1.59349       -1.48036
H         -2.95193       -4.20866        1.19396
H         -0.60150        0.60706        3.65642
H         -0.70147       -3.15811        1.25815
H          0.83113       -3.42530       -0.74616
