62
ZTX_66_solv.log	Energy: -1483135.8650875
C         -1.39294        1.33308        1.02508
N         -0.69251        1.16532        2.27475
C          0.23600        0.22703        2.45074
C         -0.81487        2.25591       -0.07110
H         -2.33307        1.84550        1.25493
N          0.97414        0.20690        3.54546
H          0.91726        0.96819        4.21508
H         -0.95030        1.75335        3.06229
N          0.44774       -0.66895        1.46713
C          0.34888       -1.01642       -0.90023
C          1.82042       -0.72145       -0.39346
C          1.77015       -1.15139        1.08536
O          0.24854       -2.24252       -1.53010
O         -0.14678       -0.04390       -1.74745
H          2.55413       -0.68009        1.68863
H          1.83000       -2.23875        1.21284
O         -1.63418        2.77529       -0.81993
C         -1.73207       -0.02549        0.42011
C         -0.52592       -0.97853        0.42040
N         -1.16959       -2.24475        0.67628
C         -2.38905       -2.08630        1.18687
N         -2.73258       -0.77772        1.19362
H         -2.08516        0.11514       -0.60962
N         -3.13993       -3.07502        1.61421
C         -4.08192       -0.32366        1.37940
H         -4.09139       -2.92652        1.93202
H          0.41520       -0.00296       -2.53415
C          2.29802        0.73896       -0.54426
O         -4.89376       -0.58071        0.24849
H         -4.53826       -0.85846        2.21958
H         -4.07431        0.74634        1.61276
C         -5.03772        0.41328       -0.65742
O         -4.51356        1.50200       -0.57633
N         -5.89323        0.01325       -1.62757
H         -6.06968       -0.98073       -1.76079
O         -5.93440        0.76695       -2.76860
H         -6.76146        1.26982       -2.72683
H          3.36567        0.65902       -0.30246
H          2.23957        1.01202       -1.60775
N          0.50430        2.48115       -0.20065
C          1.74747        1.89625        0.30203
C          2.63398        3.15936        0.22830
C          2.11487        3.85553       -1.03039
O          0.82790        3.27948       -1.29170
H          1.64497        1.63558        1.35603
C          4.13539        2.95643        0.25721
H          2.37116        3.77094        1.10421
H          2.00786        4.94137       -0.89943
H          2.74466        3.65297       -1.90921
O          4.72810        4.23496        0.34512
H          4.40345        2.32517        1.12500
H          4.47257        2.43320       -0.65438
H          5.68132        4.12607        0.25370
O          2.73713       -1.42034       -1.22713
S          3.44458       -2.86261       -0.83055
O          4.21336       -3.14052       -2.03617
O          4.23005       -2.61331        0.38035
O          2.29204       -3.77228       -0.60947
H         -2.77618       -4.02305        1.60236
H          1.57709       -0.58292        3.75163
H         -0.68894       -3.13786        0.61456
H          0.92250       -2.87904       -1.20322
