62
ZTX_75_solv.log	Energy: -1483138.6247675
C          1.01824       -1.90071        0.73355
N          0.45751       -1.71043        2.04861
C         -0.27791       -0.64421        2.35947
C          0.20242       -2.61225       -0.37032
H          1.85439       -2.59889        0.84600
N         -0.93027       -0.58408        3.50617
H         -0.96669       -1.39470        4.11707
H          0.65080       -2.40097        2.76868
N         -0.38943        0.34700        1.45591
C         -0.38200        0.88870       -0.87451
C         -1.84634        0.82061       -0.27420
C         -1.61847        1.09550        1.22419
O         -0.09361        2.13159       -1.40825
O         -0.13361       -0.07172       -1.83648
H         -2.43672        0.72057        1.84936
H         -1.46278        2.15891        1.44196
O          0.86177       -3.21757       -1.20883
C          1.55890       -0.58362        0.18569
C          0.55538        0.56978        0.36325
N          1.43696        1.67124        0.66217
C          2.66160        1.26429        0.98695
N          2.74668       -0.08320        0.89143
H          1.79400       -0.70759       -0.87906
N          3.63923        2.05928        1.36032
C          3.96152       -0.83300        1.00302
H          4.60796        1.73248        1.27828
H         -0.73948        0.06623       -2.57877
C         -2.59269       -0.50977       -0.50258
O          4.67199       -0.91394       -0.22281
H          4.59140       -0.39945        1.78885
H          3.72119       -1.86421        1.27801
C          5.70165       -0.06578       -0.41270
O          6.00899        0.83054        0.35170
N          6.35781       -0.38714       -1.54540
H          5.92445       -1.00282       -2.23086
O          7.24467        0.52436       -2.04304
H          8.12713        0.18337       -1.83235
H         -3.61945       -0.27473       -0.19854
H         -2.63376       -0.69877       -1.58463
N         -1.13899       -2.56737       -0.41944
C         -2.21672       -1.81012        0.21916
C         -3.32072       -2.89464        0.14792
C         -3.02802       -3.57601       -1.18892
O         -1.68179       -3.21148       -1.52496
H         -1.99734       -1.65755        1.27625
C         -4.76501       -2.47309        0.36264
H         -3.08524       -3.60067        0.95715
H         -3.10548       -4.67088       -1.12503
H         -3.67302       -3.20669       -1.99648
O         -5.28201       -1.82135       -0.77717
H         -5.35312       -3.37961        0.59064
H         -4.81174       -1.82294        1.25530
H         -6.17422       -1.52209       -0.56971
O         -2.66707        1.74969       -0.97333
S         -3.06458        3.25269       -0.40715
O         -3.83857        3.77962       -1.52305
O         -3.80756        3.03724        0.83656
O         -1.75015        3.91297       -0.20266
H          3.46661        3.05981        1.38992
H         -1.37476        0.27682        3.80741
H          1.15374        2.64514        0.60938
H         -0.61669        2.84525       -0.97998
