62
ZTX_38_solv.log	Energy: -1483141.2498530
C         -1.44195        1.43499       -0.47465
N         -1.39726        1.33725        0.96385
C         -0.62594        0.45343        1.59459
C         -0.45792        2.35734       -1.22928
H         -2.40112        1.90138       -0.72558
N         -0.46936        0.50628        2.90462
H         -0.83854        1.28964        3.43518
H         -2.01062        1.93446        1.51137
N          0.03805       -0.46096        0.86149
C          1.00152       -1.01659       -1.25487
C          2.09211       -0.59859       -0.18566
C          1.39788       -0.90210        1.15517
O          1.18982       -2.30685       -1.71289
O          0.94630       -0.16594       -2.34387
H          1.82684       -0.33139        1.98709
H          1.40755       -1.96863        1.40921
O         -0.88440        2.85449       -2.26651
C         -1.42792        0.04334       -1.10518
C         -0.37108       -0.88312       -0.47708
N         -1.08886       -2.13778       -0.41934
C         -2.40723       -1.95843       -0.52393
N         -2.67710       -0.68688       -0.88757
H         -1.24646        0.13785       -2.18358
N         -3.31422       -2.88782       -0.33272
C         -3.91970       -0.22021       -1.43494
H         -4.29291       -2.59988       -0.22543
H          1.78964       -0.21854       -2.81613
C          2.56281        0.87013       -0.24958
O         -4.68470        0.51844       -0.49916
H         -3.69910        0.47892       -2.24917
H         -4.50322       -1.06049       -1.83133
C         -5.51108       -0.17161        0.30866
O         -5.62897       -1.38313        0.30464
N         -6.21579        0.67791        1.08245
H         -5.92035        1.64677        1.18459
O         -6.90574        0.15149        2.13634
H         -7.83565        0.12801        1.86399
H          3.44025        0.85867        0.40828
H          2.92865        1.07793       -1.26516
N          0.79394        2.58090       -0.79715
C          1.68610        2.03805        0.22517
C          2.49552        3.32381        0.51770
C          2.60382        3.96328       -0.86352
O          1.55338        3.37747       -1.64650
H          1.12789        1.80546        1.13133
C          3.81670        3.14580        1.23387
H          1.84749        3.94943        1.14968
H          3.55454        3.72443       -1.36294
H          2.46911        5.05356       -0.83538
O          3.56655        2.45949        2.44215
H          4.52993        2.59409        0.59667
H          4.25503        4.14297        1.41862
H          4.41348        2.26551        2.85928
O          3.28950       -1.31536       -0.46309
S          3.77060       -2.67667        0.34493
O          4.98171       -3.02363       -0.38657
O          3.96233       -2.27455        1.74029
O          2.64310       -3.62394        0.15514
H         -3.02475       -3.80939       -0.02031
H          0.00467       -0.24126        3.40113
H         -0.66970       -2.98388       -0.04324
H          1.63911       -2.87199       -1.04516
