62
ZTX_47_solv.log	Energy: -1483137.6730427
C         -1.23937        1.79307        0.52265
N         -0.71553        2.06285        1.83987
C         -0.00553        1.17069        2.52844
C         -0.39165        2.08889       -0.73338
H         -2.08132        2.47663        0.37194
N          0.61436        1.51757        3.64165
H          0.64675        2.49097        3.92957
H         -0.91363        2.96305        2.26713
N          0.11358       -0.08049        2.04422
C          0.19551       -1.38499        0.03689
C          1.63508       -1.09404        0.61215
C          1.34936       -0.85458        2.09806
O         -0.00251       -2.75744        0.10473
O         -0.01516       -0.89420       -1.23528
H          2.14729       -0.29531        2.60020
H          1.19640       -1.81164        2.61647
O         -1.02086        2.37419       -1.74616
C         -1.76725        0.36453        0.43768
C         -0.78727       -0.65247        1.04384
N         -1.70038       -1.58587        1.66350
C         -2.91162       -1.05499        1.83434
N         -2.99227        0.14767        1.22367
H         -1.95043        0.10954       -0.61345
N         -3.88330       -1.63982        2.49487
C         -4.24864        0.77414        0.91417
H         -4.80967       -1.23144        2.55586
H          0.68374       -1.30766       -1.78437
C          2.40256        0.08830       -0.02060
O         -4.99354        0.05083       -0.04807
H         -4.87379        0.81517        1.81258
H         -4.06307        1.79778        0.57153
C         -4.77603        0.34271       -1.35035
O         -3.96058        1.14600       -1.74727
N         -5.63747       -0.36262       -2.11909
H         -6.10158       -1.18264       -1.73308
O         -5.37115       -0.42161       -3.45925
H         -6.00509        0.17496       -3.88476
H          3.40121       -0.01799        0.42065
H          2.51514       -0.08736       -1.09809
N          0.94904        2.01213       -0.73085
C          2.00064        1.55440        0.17818
C          3.12048        2.52955       -0.25661
C          2.85800        2.69690       -1.75476
O          1.52628        2.21378       -1.97663
H          1.74125        1.79332        1.21016
C          4.55543        2.14243        0.07172
H          2.90957        3.48451        0.24932
H          2.92466        3.74440       -2.08055
H          3.52970        2.07969       -2.36906
O          5.45845        3.14321       -0.34645
H          4.64735        1.93723        1.15380
H          4.84216        1.22739       -0.46708
H          5.26733        3.94538        0.15495
O          2.45169       -2.24893        0.54693
S          3.10435       -2.78701       -0.89051
O          4.42046       -2.14609       -0.97240
O          3.13835       -4.22994       -0.67066
O          2.17252       -2.34693       -1.95213
H         -3.71888       -2.53451        2.94598
H          1.02481        0.81497        4.24785
H         -1.38428       -2.43182        2.12986
H         -0.85128       -2.95282       -0.31761
