62
ZTX_49_solv.log	Energy: -1483140.2043846
C          0.94822       -1.98486        0.11121
N          0.50988       -2.33243        1.44064
C         -0.08372       -1.45768        2.25143
C         -0.01020       -2.11641       -1.09267
H          1.71900       -2.71170       -0.16556
N         -0.64416       -1.85567        3.37865
H         -0.72751       -2.84561        3.59021
H          0.66671       -3.27971        1.77299
N         -0.14964       -0.16650        1.87583
C         -0.26281        1.33206        0.01223
C         -1.67994        1.08262        0.66025
C         -1.31499        0.68308        2.09316
O          0.04263        2.67409        0.19575
O         -0.17487        0.96000       -1.31290
H         -2.12008        0.13800        2.59970
H         -1.05474        1.57376        2.68227
O          0.52272       -2.35535       -2.17090
C          1.57208       -0.59383        0.09542
C          0.72549        0.43271        0.86940
N          1.75215        1.23221        1.49395
C          2.94701        0.64476        1.45685
N          2.87178       -0.52118        0.77621
H          1.68543       -0.26287       -0.94516
N          4.03433        1.12808        2.01348
C          3.99731       -1.32020        0.39486
H          4.94963        0.80838        1.67734
H         -0.87527        1.47616       -1.76525
C         -2.57051        0.01813       -0.02168
O          4.58566       -0.89391       -0.82344
H          4.73753       -1.32521        1.20423
H          3.66325       -2.34752        0.22238
C          5.67561       -0.10523       -0.75379
O          6.13951        0.34376        0.27846
N          6.19411        0.07187       -1.98514
H          5.64293       -0.15596       -2.81042
O          7.12353        1.05938       -2.14515
H          7.98267        0.61413       -2.20085
H         -3.53433        0.16429        0.48110
H         -2.72278        0.29012       -1.07411
N         -1.33824       -1.95542       -0.97683
C         -2.27833       -1.48757        0.04216
C         -3.50001       -2.34121       -0.36606
C         -3.37340       -2.39959       -1.88905
O         -2.02094       -2.02411       -2.18416
H         -1.96506       -1.82161        1.03197
C         -4.85854       -1.88348        0.12677
H         -3.32570       -3.34737        0.04326
H         -3.56740       -3.40366       -2.29128
H         -4.02739       -1.67115       -2.39040
O         -5.78660       -2.89157       -0.21414
H         -4.81811       -1.72336        1.22048
H         -5.13562       -0.92343       -0.34291
H         -6.66920       -2.56168       -0.01200
O         -2.41306        2.29008        0.75814
S         -3.11683        3.00396       -0.57447
O         -2.27979        2.62086       -1.73301
O         -4.47309        2.44928       -0.63201
O         -3.04865        4.41737       -0.21516
H          3.97993        2.02460        2.48795
H         -0.97669       -1.18076        4.05956
H          1.56343        2.12177        1.94615
H          0.85122        2.86158       -0.30252
