62
ZTX_101_solv.log	Energy: -1483140.6238433
C         -1.60593        0.79874       -0.69768
N         -1.74941        1.16604        0.69030
C         -1.03321        0.59780        1.65878
C         -0.58105        1.51463       -1.60036
H         -2.54951        1.08138       -1.17722
N         -1.05330        1.08014        2.88738
H         -1.52498        1.95715        3.08620
H         -2.49879        1.80635        0.94097
N         -0.23888       -0.44507        1.34628
C          1.02439       -1.55260       -0.35553
C          1.94390       -0.70135        0.60238
C          1.10538       -0.63251        1.88164
O          1.36493       -2.88497       -0.16273
O          1.09778       -1.18493       -1.68378
H          1.39449        0.20231        2.53137
H          1.18640       -1.57423        2.44261
O         -0.88242        1.60049       -2.78674
C         -1.45112       -0.71127       -0.83947
C         -0.44679       -1.29411        0.17353
N         -1.10079       -2.52865        0.54952
C         -2.39538       -2.52078        0.22282
N         -2.68437       -1.44896       -0.53821
H         -1.12283       -0.94828       -1.85942
N         -3.25394       -3.44670        0.58428
C         -3.90811       -1.31548       -1.28941
H         -4.23565       -3.38686        0.33485
H          2.04689       -1.27309       -1.91533
C          2.33795        0.70782        0.10756
O         -4.99113       -0.95000       -0.45816
H         -3.75219       -0.58411       -2.09097
H         -4.19149       -2.27873       -1.73187
C         -5.23011        0.36354       -0.25469
O         -4.64617        1.26892       -0.81176
N         -6.25145        0.50589        0.61861
H         -6.52295       -0.27034        1.21861
O         -6.46112        1.75240        1.13803
H         -7.22817        2.11370        0.66876
H          3.13698        0.98260        0.80543
H          2.79596        0.63882       -0.88738
N          0.57487        2.00341       -1.12406
C          1.35136        1.88188        0.10802
C          2.05593        3.25887        0.06648
C          2.29883        3.45955       -1.42736
O          1.39809        2.56371       -2.09375
H          0.69206        1.88628        0.97534
C          3.29422        3.41244        0.92301
H          1.30978        3.99117        0.40920
H          2.09383        4.48904       -1.75277
H          3.31862        3.17681       -1.72760
O          2.94526        3.10460        2.25605
H          4.10102        2.75389        0.55527
H          3.65957        4.45101        0.83087
H          3.74931        3.11852        2.78746
O          3.12160       -1.41517        0.93718
S          4.38017       -1.59265       -0.14025
O          5.26592       -0.45258        0.11842
O          4.92036       -2.89000        0.25517
O          3.77078       -1.56444       -1.48818
H         -2.94604       -4.22267        1.16210
H         -0.62708        0.56859        3.65338
H         -0.69792       -3.17113        1.22592
H          0.83813       -3.41556       -0.77710
