62
ZTX_319_solv.log	Energy: -1483136.4755225
C         -1.48438        1.42211       -0.30777
N         -1.41574        1.18354        1.11270
C         -0.68672        0.20201        1.64065
C         -0.46650        2.35813       -0.99487
H         -2.41960        1.96334       -0.48833
N         -0.49079        0.13493        2.94464
H         -0.79643        0.89231        3.54807
H         -1.95761        1.77899        1.73285
N         -0.10974       -0.69285        0.81552
C          0.80147       -1.09047       -1.35736
C          1.92730       -0.82178       -0.28688
C          1.22967       -1.23289        1.01948
O          0.95658       -2.38838       -1.81371
O          0.77579       -0.17768       -2.39859
H          1.70192       -0.79869        1.90722
H          1.20572       -2.32527        1.12519
O         -0.88335        2.96705       -1.97563
C         -1.55868        0.10210       -1.07225
C         -0.55555       -0.94339       -0.55167
N         -1.34611       -2.15589       -0.61315
C         -2.65510       -1.88559       -0.68000
N         -2.84896       -0.57328       -0.91996
H         -1.37554        0.29222       -2.13750
N         -3.61282       -2.77404       -0.56309
C         -4.06694        0.01114       -1.41175
H         -4.57245       -2.44160       -0.41783
H          1.60589       -0.24904       -2.89206
C          2.46540        0.62550       -0.26263
O         -4.78318        0.70303       -0.40523
H         -3.80999        0.76796       -2.16106
H         -4.69820       -0.75728       -1.87511
C         -5.64147       -0.00923        0.34854
O         -5.82923       -1.20678        0.23818
N         -6.28917        0.80670        1.20419
H         -5.93294        1.74240        1.38893
O         -6.99570        0.22792        2.21898
H         -7.92912        0.28659        1.96456
H          3.39524        0.53726        0.30625
H          2.76137        0.90227       -1.28430
N          0.79804        2.48640       -0.56341
C          1.69084        1.79078        0.36591
C          2.58566        2.99142        0.75676
C          2.68850        3.76376       -0.55637
O          1.57833        3.32485       -1.35301
H          1.14959        1.50476        1.26891
C          3.90332        2.70097        1.45826
H          1.98703        3.58554        1.46255
H          2.62135        4.85122       -0.41028
H          3.60355        3.52201       -1.11292
O          4.88787        2.24959        0.55208
H          4.23772        3.62803        1.95722
H          3.71983        1.95490        2.25073
H          5.54374        1.74800        1.04869
O          3.03087       -1.63505       -0.64771
S          4.07322       -2.28216        0.47730
O          3.39293       -3.48143        0.98344
O          5.24146       -2.55097       -0.35883
O          4.26455       -1.24020        1.50045
H         -3.37517       -3.73793       -0.34952
H         -0.05664       -0.68063        3.36475
H         -0.98545       -3.04240       -0.26919
H          0.25534       -2.56205       -2.45823
