62
ZTX_341_solv.log	Energy: -1483140.3378244
C          1.39338        1.18852        0.77359
N          1.51577        1.54712       -0.61707
C          0.89745        0.87003       -1.58246
C          0.24687        1.76571        1.63444
H          2.26962        1.60424        1.28315
N          0.87575        1.33032       -2.81994
H          1.23448        2.25740       -3.02802
H          2.12483        2.32009       -0.86982
N          0.24474       -0.26438       -1.26239
C         -0.93929       -1.41477        0.47870
C         -1.91977       -0.75143       -0.56921
C         -1.04636       -0.63735       -1.82203
O         -1.02995       -2.78818        0.48976
O         -1.18276       -0.86369        1.73003
H         -1.41559        0.12002       -2.52463
H         -0.99365       -1.60838       -2.33370
O          0.49324        1.88958        2.82966
C          1.43108       -0.32826        0.93827
C          0.51180       -1.05319       -0.05839
N          1.30489       -2.21774       -0.37946
C          2.59002       -2.04035       -0.06794
N          2.74383       -0.91044        0.65763
H          1.14636       -0.57621        1.96930
N          3.56553       -2.85657       -0.39092
C          3.88314       -0.60170        1.47717
H          4.53256       -2.53233       -0.28291
H         -0.78115       -1.43490        2.40057
C         -2.52171        0.60188       -0.14644
O          4.71617        0.38865        0.90242
H          3.52600       -0.17016        2.41855
H          4.45807       -1.51049        1.69403
C          5.66219       -0.02317        0.03798
O          5.86398       -1.18469       -0.26372
N          6.32063        1.04127       -0.46640
H          6.26982        1.94112        0.00791
O          7.48271        0.79826       -1.14250
H          7.27310        0.90100       -2.08312
H         -3.32293        0.75645       -0.87945
H         -3.01149        0.48939        0.82809
N         -0.94516        2.10505        1.11639
C         -1.67438        1.88566       -0.13245
C         -2.53345        3.17104       -0.10686
C         -2.88278        3.28078        1.37251
O         -1.86052        2.55087        2.06662
H         -1.00281        1.96566       -0.98761
C         -3.72542        3.24482       -1.04680
H         -1.85222        3.99335       -0.37251
H         -2.88878        4.31976        1.72993
H         -3.84735        2.80624        1.60945
O         -3.34044        3.20043       -2.40435
H         -4.46609        2.46180       -0.80785
H         -4.22693        4.21112       -0.88761
H         -3.08864        2.29631       -2.62800
O         -2.96269       -1.63938       -0.95600
S         -4.23843       -2.12309       -0.00733
O         -5.03480       -0.93513        0.30625
O         -4.87683       -3.07880       -0.90556
O         -3.60158       -2.73277        1.18362
H          3.36800       -3.66277       -0.97537
H          0.53147        0.75592       -3.58204
H          0.97252       -2.94835       -1.00169
H         -1.94494       -2.99986        0.78523
