62
ZTX_31_solv.log	Energy: -1483138.3166980
C         -1.33683        1.73667        0.39740
N         -0.77023        2.16304        1.65412
C          0.05106        1.39664        2.36974
C         -0.58228        2.00313       -0.92466
H         -2.24124        2.33462        0.24138
N          0.69965        1.88988        3.40853
H          0.65927        2.88368        3.61468
H         -1.02033        3.07977        2.01413
N          0.25253        0.12222        1.98235
C          0.30266       -1.38908        0.12646
C          1.74832       -0.91930        0.54493
C          1.55434       -0.53704        2.01529
O          0.22869       -2.75341        0.37312
O         -0.03729       -1.07836       -1.17454
H          2.33553        0.14005        2.38101
H          1.53040       -1.43761        2.64475
O         -1.28035        2.16594       -1.91919
C         -1.74899        0.26940        0.46830
C         -0.66561       -0.61301        1.11409
N         -1.47241       -1.53072        1.88480
C         -2.71601       -1.08355        2.05508
N         -2.91849        0.04056        1.33113
H         -1.95395       -0.09845       -0.54515
N         -3.60609       -1.67279        2.81912
C         -4.22900        0.53189        1.00415
H         -4.55801       -1.33058        2.89129
H          0.65614       -1.50269       -1.72320
C          2.35267        0.24562       -0.26950
O         -4.88028       -0.28133        0.04660
H         -4.85992        0.52401        1.89933
H         -4.14911        1.56296        0.64445
C         -4.76680        0.07201       -1.25473
O         -4.19181        1.05997       -1.65328
N         -5.35648       -0.87088       -2.02726
H         -6.03258       -1.50809       -1.61074
O         -5.60484       -0.53725       -3.33070
H         -4.94272       -1.00883       -3.85767
H          3.40038        0.23277        0.05067
H          2.34688       -0.00792       -1.33729
N          0.75850        2.04802       -0.98544
C          1.87867        1.69546       -0.11612
C          2.90817        2.71780       -0.65248
C          2.59326        2.74470       -2.14508
O          1.25728        2.23639       -2.27001
H          1.66443        1.97294        0.91527
C          4.36632        2.45635       -0.31575
H          2.62575        3.68754       -0.21359
H          2.63539        3.75789       -2.56832
H          3.25142        2.07877       -2.72299
O          4.56399        2.28459        1.07130
H          4.72168        1.53860       -0.80739
H          4.97577        3.28759       -0.71202
H          4.29501        3.09861        1.51496
O          2.65792       -2.00528        0.53197
S          3.25844       -2.63368       -0.89044
O          4.48735       -1.87781       -1.15334
O          3.46570       -4.03123       -0.52344
O          2.20770       -2.41355       -1.90888
H         -3.34709       -2.49732        3.35213
H          1.20765        1.27860        4.03962
H         -1.07188       -2.30328        2.40964
H         -0.62498       -3.06565        0.04102
