62
ZTX_515_solv.log	Energy: -1483135.2417259
C         -1.51250        1.39442        0.68341
N         -1.03424        1.55882        2.03329
C         -0.22373        0.67810        2.61616
C         -0.71379        1.95708       -0.51163
H         -2.44261        1.96853        0.60159
N          0.33437        0.94602        3.78218
H          0.24651        1.86905        4.19632
H         -1.35331        2.36049        2.57008
N          0.06641       -0.47465        1.97801
C          0.36270       -1.41017       -0.21829
C          1.73931       -1.00581        0.44245
C          1.41128       -1.03192        1.93866
O          0.25531       -2.76863       -0.41779
O          0.20147       -0.69360       -1.39558
H          2.11201       -0.43481        2.53340
H          1.42029       -2.06813        2.30307
O         -1.37441        2.23432       -1.50728
C         -1.83511       -0.06810        0.41129
C         -0.72536       -1.02006        0.87364
N         -1.50430       -2.15700        1.30440
C         -2.78416       -1.84351        1.49810
N         -3.00961       -0.55715        1.14185
H         -2.00662       -0.19846       -0.66678
N         -3.67864       -2.67535        1.97923
C         -4.30592        0.00576        0.88472
H         -4.65476       -2.41686        2.07409
H         -0.50259       -1.10776       -1.91492
C          2.33319        0.33831       -0.01982
O         -4.64027       -0.15062       -0.48132
H         -5.06212       -0.50877        1.48570
H         -4.31180        1.06779        1.15394
C         -4.69748        0.95962       -1.24489
O         -4.63229        2.09680       -0.82122
N         -4.80399        0.66514       -2.55969
H         -5.09806        1.41161       -3.18599
O         -5.11630       -0.60297       -2.96834
H         -4.29121       -0.98638       -3.30225
H          3.34568        0.31832        0.40175
H          2.44698        0.31802       -1.11035
N          0.61627        2.13377       -0.46674
C          1.72336        1.69126        0.38407
C          2.69066        2.86646        0.12176
C          2.44396        3.15734       -1.35832
O          1.15747        2.60084       -1.66002
H          1.42908        1.73481        1.43398
C          4.15329        2.66264        0.49780
H          2.31953        3.71304        0.71806
H          2.43362        4.23287       -1.58371
H          3.17901        2.65533       -2.00601
O          4.87433        3.87584        0.46387
H          4.20923        2.28544        1.53055
H          4.62358        1.90972       -0.15791
H          5.01368        4.12015       -0.45881
O          2.72137       -2.02676        0.29343
S          3.47869       -2.46511       -1.11944
O          4.25723       -1.31577       -1.58453
O          4.26642       -3.59775       -0.64619
O          2.36921       -2.82882       -2.03227
H         -3.40014       -3.61502        2.24534
H          0.83793        0.22817        4.29314
H         -1.09149       -3.05551        1.53472
H          0.96023       -3.00875       -1.06234
