62
ZTX_471_solv.log	Energy: -1483140.5940177
C          1.58390        0.79497        0.88223
N          1.78741        1.19616       -0.48795
C          1.13278        0.62179       -1.49563
C          0.50121        1.47665        1.74644
H          2.49595        1.08608        1.41363
N          1.22963        1.09590       -2.72365
H          1.71438        1.97084       -2.89882
H          2.59378        1.78315       -0.69055
N          0.31710       -0.41661       -1.22641
C         -1.04334       -1.45870        0.45009
C         -1.90634       -0.63072       -0.58500
C         -1.00124       -0.58168       -1.81941
O         -1.31779       -2.80699        0.40704
O         -1.23716       -0.92428        1.71759
H         -1.24777        0.25129       -2.48863
H         -1.07329       -1.52655       -2.37608
O          0.72117        1.50406        2.95263
C          1.45059       -0.72069        0.97953
C          0.45184       -1.27857       -0.05078
N          1.08037       -2.52985       -0.40628
C          2.37610       -2.53038       -0.09249
N          2.68402       -1.44248        0.64297
H          1.14154       -0.98710        1.99882
N          3.22401       -3.47056       -0.44340
C          3.93937       -1.28161        1.33392
H          4.20403       -3.42650       -0.18439
H         -0.94626       -1.57383        2.37344
C         -2.33437        0.77433       -0.12466
O          4.98636       -0.97017        0.43615
H          3.82538       -0.50939        2.10375
H          4.24116       -2.22169        1.81297
C          5.15150        0.31891        0.06930
O          4.58812        1.26245        0.58316
N          6.00835        0.38460       -0.97376
H          6.60900       -0.41001       -1.18560
O          6.53309        1.61048       -1.27452
H          6.07417        1.90912       -2.07398
H         -3.08180        1.06220       -0.87277
H         -2.85887        0.70033        0.83512
N         -0.60344        2.02406        1.21183
C         -1.32576        1.93114       -0.05692
C         -2.01018        3.31616       -0.01972
C         -2.34516        3.47062        1.46127
O         -1.47400        2.56448        2.15354
H         -0.62491        1.93696       -0.89211
C         -3.18154        3.52423       -0.96381
H         -1.22822        4.04565       -0.28298
H         -2.17300        4.49145        1.82996
H         -3.37841        3.16874        1.68940
O         -2.84027        3.22057       -2.29955
H         -4.02403        2.87182       -0.69104
H         -3.53739        4.56481       -0.86322
H         -2.12409        3.81058       -2.56578
O         -3.04992       -1.35901       -1.02053
S         -4.39773       -1.70161       -0.11124
O         -5.01985       -0.43031        0.26288
O         -5.15253       -2.50530       -1.06592
O         -3.87508       -2.46040        1.04981
H          2.90612       -4.24990       -1.01112
H          0.84633        0.58082       -3.50956
H          0.64483       -3.20876       -1.02307
H         -2.26031       -2.90640        0.67457
