62
ZTX_494_solv.log	Energy: -1483143.2429109
C          1.41283        1.25185        0.55625
N          1.53224        1.51017       -0.85882
C          0.89691        0.78698       -1.78000
C          0.30875        1.92714        1.39675
H          2.31145        1.66818        1.02367
N          0.87437        1.17178       -3.04268
H          1.24234        2.08002       -3.30955
H          2.14636        2.25999       -1.16389
N          0.23045       -0.31834       -1.39348
C         -0.91222       -1.45865        0.36036
C         -1.91672       -0.75624       -0.64329
C         -1.07559       -0.70098       -1.92041
O         -0.95717       -2.84019        0.21491
O         -1.06864       -1.04564        1.67202
H         -1.44624        0.03830       -2.64056
H         -1.04212       -1.68909       -2.39972
O          0.59985        2.16339        2.56576
C          1.40232       -0.24968        0.83262
C          0.52150       -1.04151       -0.15548
N          1.35976       -2.18769       -0.42515
C          2.61815       -2.00439       -0.03032
N          2.72410       -0.85614        0.67094
H          1.04810       -0.42460        1.85682
N          3.61083       -2.83305       -0.26080
C          3.80971       -0.50757        1.54390
H          4.56869       -2.49852       -0.11361
H         -2.01797       -1.14191        1.88870
C         -2.47915        0.63034       -0.25664
O          4.66878        0.47104        0.98613
H          3.39379       -0.04650        2.44658
H          4.37861       -1.40271        1.82444
C          5.65595        0.04104        0.17921
O          5.87690       -1.12691       -0.08088
N          6.33294        1.09579       -0.32128
H          6.25813        2.00583        0.12977
O          7.52483        0.84234       -0.93893
H          7.35965        0.93675       -1.88923
H         -3.31114        0.76320       -0.95838
H         -2.93437        0.57539        0.73862
N         -0.90475        2.19798        0.89715
C         -1.64081        1.91129       -0.33257
C         -2.48671        3.20693       -0.39198
C         -2.78646        3.47064        1.08201
O         -1.79735        2.73393        1.81696
H         -0.96906        1.94002       -1.19091
C         -3.68716        3.24818       -1.32270
H         -1.79726        3.98513       -0.75040
H         -2.71046        4.53616        1.34122
H         -3.76977        3.08610        1.38270
O         -4.77454        2.52314       -0.79034
H         -3.96420        4.30668       -1.47241
H         -3.38096        2.85054       -2.30744
H         -5.48242        2.52538       -1.44446
O         -3.03335       -1.59167       -0.94121
S         -4.06475       -2.18943        0.21620
O         -3.80038       -1.42126        1.44888
O         -5.38122       -1.99650       -0.37106
O         -3.62831       -3.59493        0.32773
H          3.44887       -3.65345       -0.83626
H          0.51732        0.55664       -3.76642
H          1.05104       -2.96244       -1.00341
H         -1.86490       -3.19371        0.30794
