62
ZTX_136_solv.log	Energy: -1483143.6822491
C          1.09519       -1.90174        0.11226
N          0.63489       -2.29049        1.42250
C         -0.05092       -1.46850        2.21438
C          0.19784       -2.10642       -1.12915
H          1.93238       -2.56319       -0.13328
N         -0.62088       -1.91444        3.31875
H         -0.63700       -2.90913        3.52362
H          0.85004       -3.22575        1.75662
N         -0.19916       -0.18078        1.84482
C         -0.34432        1.29594       -0.03334
C         -1.77590        0.93618        0.55191
C         -1.44804        0.55514        1.99787
O         -0.05647        2.64158        0.14439
O         -0.17596        0.89337       -1.34835
H         -2.22652       -0.06731        2.45533
H         -1.30542        1.46108        2.60325
O          0.78944       -2.29788       -2.18577
C          1.61450       -0.46873        0.12909
C          0.66527        0.49068        0.87387
N          1.60653        1.35843        1.53919
C          2.84037        0.85977        1.54536
N          2.87545       -0.30891        0.86476
H          1.74774       -0.12240       -0.90355
N          3.86921        1.41785        2.14214
C          4.07160       -1.01766        0.52394
H          4.81816        1.16138        1.84673
H         -0.84593        1.36933       -1.87161
C         -2.55315       -0.17418       -0.18340
O          4.67654       -0.53288       -0.66572
H          4.77607       -0.97735        1.36298
H          3.82399       -2.06437        0.32440
C          5.70038        0.32387       -0.54126
O          6.11213        0.75995        0.52307
N          6.21263        0.69609       -1.73110
H          7.10743        1.18197       -1.73033
O          5.92443       -0.01206       -2.86470
H          5.27664        0.51716       -3.35453
H         -3.55189       -0.10423        0.26293
H         -2.66403        0.08700       -1.24452
N         -1.14298       -2.06921       -1.06087
C         -2.15281       -1.65270       -0.08767
C         -3.29063       -2.60856       -0.52312
C         -3.10157       -2.68264       -2.03775
O         -1.77468       -2.20139       -2.29112
H         -1.85450       -1.94705        0.91820
C         -4.69475       -2.23504       -0.09800
H         -3.04886       -3.58772       -0.08376
H         -3.19841       -3.70772       -2.42243
H         -3.79195       -2.02103       -2.58091
O         -4.71359       -2.11764        1.30884
H         -5.00553       -1.29401       -0.58577
H         -5.38736       -3.02205       -0.44674
H         -5.58481       -1.79928        1.57146
O         -2.60635        2.08784        0.65546
S         -3.26180        2.83669       -0.67399
O         -4.40668        2.03367       -1.10357
O         -3.59069        4.14566       -0.12343
O         -2.14540        2.84929       -1.65519
H          3.73234        2.30556        2.61623
H         -1.02340       -1.26975        3.99109
H          1.34875        2.25433        1.94086
H         -0.64911        3.12912       -0.45508
