62
ZTX_109_solv.log	Energy: -1483140.7171916
C          1.38046        1.24156        0.64349
N          1.48685        1.53267       -0.76454
C          0.89696        0.78373       -1.69399
C          0.22572        1.83373        1.48332
H          2.24888        1.70449        1.12437
N          0.85542        1.18036       -2.95274
H          1.16791        2.11275       -3.20682
H          2.06209        2.31732       -1.05748
N          0.29221       -0.36017       -1.31921
C         -0.85345       -1.47807        0.46771
C         -1.85474       -0.88759       -0.60242
C         -0.98262       -0.80735       -1.85876
O         -0.88972       -2.85326        0.51713
O         -1.12405       -0.90183        1.70203
H         -1.37591       -0.10430       -2.60228
H         -0.89310       -1.80286       -2.31544
O          0.48406        2.04095        2.66456
C          1.46058       -0.26362        0.89120
C          0.58482       -1.07702       -0.07758
N          1.43036       -2.21877       -0.33590
C          2.70008       -1.98290       -0.00154
N          2.79711       -0.81554        0.67231
H          1.16101       -0.46147        1.92904
N          3.71085       -2.77958       -0.25945
C          3.90204       -0.42560        1.50421
H          4.66201       -2.41125       -0.15111
H         -0.69837       -1.43577        2.38864
C         -2.50507        0.46277       -0.24135
O          4.71451        0.56523        0.90157
H          3.50272        0.03737        2.41354
H          4.50288       -1.30133        1.77933
C          5.70970        0.14477        0.09889
O          5.93554       -1.02075       -0.16953
N          6.44084        1.19757       -0.32015
H          6.06967        2.14237       -0.24164
O          7.31826        0.98868       -1.34564
H          8.19921        0.95323       -0.94295
H         -3.29641        0.56248       -0.99415
H         -3.00585        0.37182        0.72996
N         -0.99079        2.08177        0.96929
C         -1.71652        1.78339       -0.26749
C         -2.64155        3.02150       -0.28740
C         -2.93932        3.23554        1.19591
O         -1.91336        2.52943        1.90688
H         -1.04609        1.86447       -1.12421
C         -3.88395        2.96266       -1.16351
H         -2.02255        3.85784       -0.64840
H         -2.91622        4.29536        1.48491
H         -3.90291        2.79589        1.49373
O         -4.58583        4.18647       -1.12664
H         -3.59771        2.68758       -2.19510
H         -4.58343        2.19769       -0.79584
H         -4.00669        4.87141       -1.48298
O         -2.87216       -1.82106       -0.95047
S         -4.12508       -2.31839        0.02168
O         -4.94759       -1.14564        0.32498
O         -4.74979       -3.30500       -0.85232
O         -3.45943       -2.89158        1.21504
H          3.55497       -3.61586       -0.81357
H          0.53332        0.55642       -3.68511
H          1.13581       -2.99375       -0.92235
H         -1.79631       -3.09385        0.81689
