62
ZTX_434_solv.log	Energy: -1483141.4412371
C         -1.67496        1.17366       -0.80369
N         -1.73312        1.16167        0.63801
C         -0.96501        0.34216        1.35547
C         -0.69755        2.11417       -1.53906
H         -2.63618        1.57033       -1.14621
N         -0.95074        0.41082        2.67383
H         -1.45827        1.14976        3.15142
H         -2.56723        1.56322        1.08432
N         -0.14816       -0.50899        0.70595
C          1.02613       -1.00887       -1.31173
C          1.98849       -0.50111       -0.15527
C          1.20592       -0.83593        1.13004
O          1.37595       -2.26596       -1.76592
O          0.96380       -0.15331       -2.39528
H          1.51063       -0.21760        1.98265
H          1.27682       -1.89344        1.41128
O         -1.05900        2.49791       -2.64652
C         -1.52636       -0.24701       -1.34910
C         -0.40336       -1.01767       -0.63904
N         -0.97267       -2.34915       -0.57339
C         -2.30741       -2.29447       -0.62948
N         -2.69884       -1.08440       -1.07193
H         -1.34289       -0.20953       -2.43069
N         -3.10682       -3.29599       -0.33628
C         -4.04089       -0.64671       -1.31585
H         -4.09641       -3.11297       -0.17986
H          1.84441       -0.09449       -2.79235
C          2.34414        0.99817       -0.20667
O         -4.49418        0.19584       -0.26776
H         -4.06264       -0.02692       -2.21872
H         -4.70872       -1.50525       -1.45321
C         -4.85593       -0.40149        0.87755
O         -5.10095       -1.58636        0.98831
N         -4.97611        0.48349        1.89957
H         -5.05110        0.09340        2.83694
O         -4.30726        1.67956        1.84657
H         -4.95451        2.35630        1.59453
H          3.13426        1.07930        0.54956
H          2.81246        1.21542       -1.17729
N          0.47784        2.48557       -1.00693
C          1.31760        2.09093        0.12118
C          1.96852        3.46539        0.40008
C          2.15142        4.02850       -1.00700
O          1.24772        3.28843       -1.84133
H          0.70197        1.84468        0.98572
C          3.22357        3.46840        1.25587
H          1.20108        4.05902        0.92111
H          1.90933        5.09872       -1.06913
H          3.16620        3.85993       -1.39711
O          3.02962        2.79502        2.48128
H          4.04975        2.95969        0.73789
H          3.54154        4.51402        1.41416
H          2.33974        3.25867        2.97191
O          3.25710       -1.12542       -0.30781
S          3.74743       -2.45693        0.54473
O          2.70637       -3.47481        0.25182
O          5.04225       -2.72241       -0.06754
O          3.78003       -2.05018        1.95161
H         -2.70671       -4.13943        0.06462
H         -0.47824       -0.29829        3.22503
H         -0.47475       -3.12633       -0.14691
H          1.79329       -2.80365       -1.05638
