62
ZTX_151_solv.log	Energy: -1483141.9209179
C         -1.76383        0.95806        0.89624
N         -1.37128        0.85177        2.27922
C         -0.48430       -0.04409        2.70945
C         -0.98739        1.87724       -0.07512
H         -2.74765        1.44032        0.89337
N         -0.01698        0.01415        3.94255
H         -0.24541        0.80250        4.54080
H         -1.80849        1.47016        2.95708
N         -0.02722       -0.98116        1.85353
C          0.44901       -1.38956       -0.45663
C          1.75219       -0.97476        0.35087
C          1.37830       -1.36592        1.78275
O          0.53136       -2.70093       -0.90060
O          0.13820       -0.50734       -1.47957
H          1.97610       -0.83825        2.53514
H          1.49965       -2.44930        1.91930
O         -1.63195        2.33279       -1.01879
C         -1.89331       -0.42668        0.27194
C         -0.71064       -1.34643        0.61342
N         -1.37882       -2.61847        0.73751
C         -2.70115       -2.49233        0.83000
N         -3.05843       -1.19120        0.73676
H         -1.94122       -0.32587       -0.81999
N         -3.51679       -3.50689        0.99958
C         -4.39159       -0.71935        0.44456
H         -4.52168       -3.38635        1.05665
H          0.89452       -0.51809       -2.09375
C          2.18714        0.49989        0.22498
O         -4.50472       -0.42832       -0.93432
H         -5.12901       -1.48537        0.70184
H         -4.60860        0.17975        1.03364
C         -4.45146        0.88679       -1.28006
O         -4.80392        1.79425       -0.55958
N         -3.96611        1.01464       -2.53423
H         -3.42065        0.25076       -2.93066
O         -3.61645        2.27209       -2.94045
H         -2.85322        2.51152       -2.37360
H          3.19135        0.51380        0.66378
H          2.32274        0.75032       -0.83571
N          0.30711        2.16913        0.09374
C          1.41820        1.64822        0.89420
C          2.23720        2.95731        1.00612
C          2.01572        3.60173       -0.36159
O          0.84374        2.97198       -0.90266
H          1.07658        1.40439        1.90087
C          3.68458        2.86868        1.46073
H          1.71538        3.56055        1.76297
H          1.84484        4.68520       -0.29146
H          2.84042        3.40043       -1.05712
O          4.52007        2.40913        0.42114
H          3.99789        3.87391        1.79415
H          3.73411        2.20423        2.34241
H          5.40125        2.27064        0.78582
O          2.86002       -1.80745        0.02414
S          3.63895       -1.72847       -1.44108
O          4.53120       -0.57072       -1.39628
O          4.30084       -3.02661       -1.47494
O          2.52997       -1.58354       -2.42090
H         -3.13803       -4.44498        1.08612
H          0.54808       -0.73986        4.31964
H         -0.88307       -3.50277        0.79452
H          1.21164       -2.71126       -1.59791
