62
ZTX_286_solv.log	Energy: -1483139.6171298
C          0.95162       -2.19934        0.24211
N          0.45173       -2.50279        1.56148
C         -0.28007       -1.64098        2.26672
C          0.05583       -2.50191       -0.98251
H          1.79051       -2.87867        0.06560
N         -0.93485       -2.03445        3.34284
H         -0.98059       -3.01965        3.58506
H          0.62133       -3.42858        1.94394
N         -0.37855       -0.37451        1.82756
C         -0.33736        1.22735        0.04120
C         -1.81298        0.95356        0.56303
C         -1.56042        0.45789        1.98952
O          0.05712        2.50780        0.34947
O         -0.16549        1.04658       -1.32553
H         -2.40254       -0.12262        2.38531
H         -1.36319        1.31066        2.65453
O          0.47970       -3.24858       -1.83820
C          1.46813       -0.75810        0.15750
C          0.57833        0.25362        0.92568
N          1.56200        1.00466        1.66928
C          2.79431        0.52310        1.54068
N          2.78650       -0.59684        0.78346
H          1.53971       -0.45607       -0.89714
N          3.86016        1.05735        2.09272
C          3.96386       -1.23384        0.27095
H          4.79222        0.81566        1.73932
H         -0.50865        0.18222       -1.60055
C         -2.64643       -0.05023       -0.25108
O          4.48047       -0.58117       -0.87914
H          4.72743       -1.29167        1.05588
H          3.71168       -2.24934       -0.04804
C          5.55603        0.21524       -0.72225
O          6.04560        0.51197        0.35240
N          6.02722        0.59656       -1.92610
H          5.45284        0.48394       -2.75931
O          6.91683        1.63241       -1.95543
H          7.78909        1.23468       -2.09830
H         -3.64288       -0.01668        0.20693
H         -2.75803        0.31383       -1.28097
N         -1.05728       -1.70709       -1.18754
C         -2.20226       -1.51009       -0.28234
C         -3.22606       -2.47652       -0.92323
C         -2.88279       -2.40459       -2.40787
O         -1.57448       -1.81243       -2.47518
H         -1.97210       -1.89662        0.71121
C         -4.68221       -2.19829       -0.61475
H         -2.97893       -3.47988       -0.54476
H         -2.85772       -3.39500       -2.88304
H         -3.56112       -1.74479       -2.96805
O         -4.85015       -2.24066        0.78637
H         -4.97791       -1.21754       -1.02793
H         -5.30219       -2.96156       -1.11864
H         -5.75272       -1.96950        0.98892
O         -2.55431        2.15493        0.73755
S         -3.08719        3.16815       -0.46703
O         -3.94543        2.38914       -1.36153
O         -3.77524        4.17597        0.33156
O         -1.84489        3.64729       -1.11693
H          3.75296        1.91697        2.62297
H         -1.35295       -1.35909        3.97414
H          1.35550        1.91932        2.05905
H         -0.52811        3.11198       -0.16310
