62
ZTX_492_solv.log	Energy: -1483138.4150852
C         -1.65363        1.11825       -0.58589
N         -1.67214        1.06320        0.85552
C         -0.86938        0.25085        1.54152
C         -0.71392        2.09642       -1.31921
H         -2.63667        1.50001       -0.87874
N         -0.80440        0.31501        2.85851
H         -1.27898        1.06075        3.35863
H         -2.45213        1.50877        1.33369
N         -0.07799       -0.59569        0.85697
C          1.05667       -1.01641       -1.20458
C          2.03665       -0.51642       -0.06175
C          1.29473       -0.91031        1.22987
O          1.41390       -2.25895       -1.69335
O          0.95641       -0.13972       -2.26805
H          1.61269       -0.32250        2.09847
H          1.39122       -1.97663        1.46730
O         -1.10914        2.49688       -2.40953
C         -1.49802       -0.27937       -1.17602
C         -0.36069       -1.06314       -0.49883
N         -0.91071       -2.39899       -0.47042
C         -2.23590       -2.38450       -0.62051
N         -2.66078       -1.14750       -0.94755
H         -1.30425       -0.19962       -2.25336
N         -3.01016       -3.43738       -0.48395
C         -3.99148       -0.86485       -1.42641
H         -4.01595       -3.37273       -0.59928
H          1.82574       -0.06278       -2.68633
C          2.36635        0.99024       -0.08991
O         -4.93656       -0.90845       -0.37584
H         -3.98797        0.11172       -1.92461
H         -4.31878       -1.63014       -2.14118
C         -5.11034        0.20200        0.37184
O         -4.61204        1.28180        0.13471
N         -5.96253       -0.06578        1.38730
H         -6.11864       -1.03099        1.67177
O         -6.03542        0.85707        2.39379
H         -6.87779        1.32057        2.27410
H          3.18965        1.07982        0.62859
H          2.79628        1.23086       -1.07259
N          0.46423        2.48436       -0.80412
C          1.34469        2.07081        0.28905
C          1.98568        3.44989        0.58467
C          2.09964        4.06569       -0.80988
O          1.19847        3.31848       -1.63909
H          0.75501        1.80432        1.16694
C          3.24944        3.50078        1.42641
H          1.22315        4.00674        1.14815
H          1.81326        5.12714       -0.82227
H          3.10384        3.94968       -1.23761
O          4.37778        3.09037        0.68499
H          3.37714        4.53833        1.78265
H          3.10167        2.86718        2.31995
H          5.13858        3.09436        1.27662
O          3.31378       -1.11064       -0.26451
S          3.86009       -2.44135        0.55212
O          2.84541       -3.48436        0.25460
O          5.15154       -2.65456       -0.08710
O          3.90539       -2.06281        1.96663
H         -2.60438       -4.33258       -0.22952
H         -0.30207       -0.38987        3.38835
H         -0.38842       -3.20310       -0.13396
H          1.87845       -2.79882       -1.01575
