62
ZTX_207_solv.log	Energy: -1483142.8941411
C          1.38477        1.20006        0.64278
N          1.49210        1.50145       -0.76387
C          0.90884        0.76209       -1.70600
C          0.23786        1.78791        1.49215
H          2.25611        1.65572        1.12487
N          0.87198        1.17688       -2.95895
H          1.17871        2.11515       -3.19807
H          2.06419        2.29207       -1.04707
N          0.30711       -0.39074       -1.35150
C         -0.81054       -1.58810        0.38238
C         -1.82884       -0.93970       -0.63870
C         -0.97121       -0.83006       -1.90250
O         -0.86568       -2.97378        0.26506
O         -0.98982       -1.18406        1.69019
H         -1.36687       -0.10452       -2.62302
H         -0.88054       -1.80991       -2.39191
O          0.50339        1.99923        2.67108
C          1.45868       -0.30584        0.88094
C          0.61151       -1.11869       -0.11569
N          1.48714       -2.23525       -0.38510
C          2.74440       -1.99104       -0.01536
N          2.80694       -0.84118        0.68851
H          1.12666       -0.52369        1.90432
N          3.77185       -2.76858       -0.26814
C          3.89294       -0.43887        1.53783
H          4.71421       -2.38538       -0.14017
H         -1.91593       -1.40901        1.91173
C         -2.47093        0.40655       -0.24663
O          4.68487        0.58435        0.96133
H          3.47379       -0.00283        2.45154
H          4.51384       -1.30392        1.80211
C          5.68355        0.20805        0.14160
O          5.94460       -0.94517       -0.14580
N          6.37365        1.29161       -0.27073
H          5.96446        2.21956       -0.17977
O          7.23675        1.12777       -1.31691
H          8.12713        1.13106       -0.93418
H         -2.96098        0.30837        0.73049
H         -3.27038        0.51301       -0.98926
N         -0.98525        2.01464        0.98811
C         -1.69534        1.73179       -0.25791
C         -2.63169        2.96123       -0.27191
C         -2.93744        3.16381        1.21196
O         -1.91187        2.45627        1.92320
H         -1.01959        1.82929       -1.10813
C         -3.86092        2.88233       -1.15560
H         -2.02564        3.80748       -0.62809
H         -2.91830        4.22162        1.50817
H         -3.90056        2.71864        1.50258
O         -4.46837        4.15661       -1.14367
H         -3.55891        2.58686       -2.17789
H         -4.55924        2.11520       -0.77729
H         -5.30536        4.08913       -1.61690
O         -2.85587       -1.88223       -0.92895
S         -4.16592       -2.13864        0.10393
O         -3.62125       -1.94256        1.46277
O         -5.16832       -1.14857       -0.28782
O         -4.48918       -3.52165       -0.22934
H          3.63946       -3.59026       -0.84956
H          0.55478        0.56257       -3.70149
H          1.20466       -3.01839       -0.96606
H         -1.64748       -3.20016       -0.26321
