62
ZTX_435_solv.log	Energy: -1483135.9348039
C         -1.54767        1.39034        0.78375
N         -1.07873        1.48785        2.14451
C         -0.28045        0.57877        2.70203
C         -0.73826        1.99848       -0.38099
H         -2.46927        1.98021        0.72596
N          0.27907        0.80513        3.87632
H          0.19952        1.71703        4.31627
H         -1.38156        2.27910        2.70574
N         -0.00819       -0.55779        2.02996
C          0.27563       -1.48774       -0.16121
C          1.65434       -1.10522        0.49939
C          1.32119       -1.16052        1.99307
O          0.26163       -2.86891       -0.30113
O          0.02004       -0.84394       -1.35386
H          2.03296       -0.59608        2.60652
H          1.29383       -2.20345        2.33770
O         -1.39339        2.35860       -1.35420
C         -1.87996       -0.05547        0.43216
C         -0.81187       -1.04809        0.91027
N         -1.63474       -2.16490        1.31410
C         -2.91854       -1.82770        1.44668
N         -3.11154       -0.54513        1.06474
H         -1.97800       -0.14955       -0.65789
N         -3.84059       -2.64490        1.89913
C         -4.37784        0.00513        0.65012
H         -4.80998       -2.36324        1.99441
H          0.77487       -1.08053       -1.93360
C          2.26488        0.25580        0.09215
O         -4.48755       -0.09661       -0.75538
H         -5.20353       -0.54793        1.10812
H         -4.45124        1.05458        0.95716
C         -4.49565        1.04668       -1.47048
O         -4.71505        2.14791       -1.01035
N         -4.29730        0.81298       -2.79163
H         -4.06609        1.62724       -3.35779
O         -3.66717       -0.34101       -3.18351
H         -4.35379       -0.90197       -3.57339
H          3.26378        0.20380        0.54251
H          2.41305        0.27205       -0.99536
N          0.59911        2.09125       -0.35053
C          1.68208        1.61323        0.50960
C          2.68318        2.76799        0.27444
C          2.44640        3.11674       -1.19480
O          1.16129        2.57163       -1.52562
H          1.37470        1.64962        1.55564
C          4.14455        2.51481        0.61494
H          2.33604        3.60648        0.89832
H          2.43682        4.20005       -1.37755
H          3.18270        2.64034       -1.85911
O          4.92482        3.66799        0.38493
H          4.22741        2.16788        1.66102
H          4.56229        1.72898       -0.03129
H          4.61086        4.36340        0.97593
O          2.62312       -2.11449        0.27623
S          3.35318       -2.33041       -1.20685
O          4.57206       -1.51685       -1.15000
O          3.57855       -3.77273       -1.21269
O          2.38056       -1.85412       -2.21524
H         -3.58462       -3.58869        2.17334
H          0.76839        0.06510        4.36922
H         -1.24178       -3.04097        1.64759
H         -0.54126       -3.10747       -0.78617
