62
ZTX_521_solv.log	Energy: -1483137.9774664
C         -1.58172        1.14482        0.95603
N         -1.10023        1.09489        2.31478
C         -0.26049        0.15676        2.74926
C         -0.81143        1.93018       -0.12899
H         -2.52625        1.69990        0.97676
N          0.29407        0.25349        3.94344
H          0.16972        1.09355        4.50047
H         -1.44614        1.78426        2.97649
N          0.05967       -0.87011        1.93476
C          0.34603       -1.51367       -0.35122
C          1.71923       -1.12155        0.32615
C          1.42208       -1.37902        1.80686
O          0.34978       -2.87453       -0.64406
O          0.03082       -0.76321       -1.46513
H          2.11074       -0.85203        2.47719
H          1.46674       -2.45564        2.02262
O         -1.48755        2.37022       -1.05277
C         -1.86130       -0.25963        0.43642
C         -0.74012       -1.25830        0.76954
N         -1.50332       -2.45186        1.03691
C         -2.80291       -2.20821        1.18152
N         -3.05357       -0.88660        1.02825
H         -1.98137       -0.22132       -0.65492
N         -3.69233       -3.13787        1.44360
C         -4.35944       -0.33704        0.77295
H         -4.68036       -2.92762        1.52879
H          0.78185       -0.87779       -2.08172
C          2.26091        0.29947        0.07080
O         -4.60865       -0.29817       -0.61787
H         -5.12733       -0.95826        1.24502
H         -4.42825        0.67156        1.19596
C         -4.56330        0.91436       -1.22628
O         -4.65587        1.97794       -0.65323
N         -4.36977        0.74469       -2.54945
H         -4.46609       -0.16834       -2.98767
O         -4.53220        1.82694       -3.36470
H         -3.64473        2.19568       -3.49594
H          3.28144        0.23812        0.46774
H          2.35342        0.46738       -1.00972
N          0.51830        2.10430       -0.07611
C          1.63508        1.55444        0.69274
C          2.57955        2.77634        0.62677
C          2.29576        3.34338       -0.76485
O          1.04454        2.77321       -1.17336
H          1.34610        1.41914        1.73561
C          4.05736        2.54361        0.90427
H          2.20909        3.48782        1.38119
H          2.21277        4.43905       -0.76645
H          3.04897        3.03218       -1.50351
O          4.77503        3.75804        0.85996
H          4.17703        2.03411        1.87784
H          4.50085        1.89766        0.13237
H          4.42940        4.33400        1.55325
O          2.70872       -2.07194       -0.05415
S          3.49686       -2.00510       -1.54605
O          3.80574       -3.41788       -1.73693
O          2.49189       -1.46223       -2.48242
O          4.65121       -1.13302       -1.33395
H         -3.39072       -4.09849        1.57504
H          0.81631       -0.52240        4.33724
H         -1.08310       -3.37624        1.04866
H          1.25102       -3.20968       -0.51162
