62
ZTX_35_solv.log	Energy: -1483142.4619628
C          1.39665        1.22778        0.71286
N          1.50264        1.55617       -0.68686
C          0.87899        0.85439       -1.63111
C          0.26193        1.82408        1.57631
H          2.27906        1.65470        1.20193
N          0.84474        1.28436       -2.87902
H          1.19222        2.20971       -3.11233
H          2.10482        2.32658       -0.96273
N          0.23369       -0.27528       -1.28049
C         -0.93042       -1.39775        0.49212
C         -1.92292       -0.75497       -0.55544
C         -1.06364       -0.65734       -1.81898
O         -1.01380       -2.77156        0.52306
O         -1.16599       -0.83105        1.73819
H         -1.44215        0.09165       -2.52521
H         -1.01635       -1.63490       -2.31850
O          0.52783        1.97997        2.76359
C          1.43564       -0.28530        0.91358
C          0.51483       -1.03675       -0.06283
N          1.31300       -2.20301       -0.36408
C          2.59679       -2.01913       -0.05198
N          2.74896       -0.87334        0.64888
H          1.15120       -0.50746        1.95049
N          3.57348       -2.84263       -0.35244
C          3.88299       -0.55093        1.47059
H          4.54027       -2.51625       -0.24470
H         -0.75707       -1.39310        2.41212
C         -2.52789        0.60239       -0.15248
O          4.73079        0.41478        0.87590
H          3.51805       -0.08979        2.39498
H          4.44785       -1.45794        1.71918
C          5.71128       -0.03246        0.06938
O          5.88931       -1.20144       -0.21980
N          6.48763        0.99605       -0.32726
H          6.15970        1.95486       -0.22870
O          7.36219        0.76987       -1.35133
H          8.23755        0.68499       -0.94369
H         -3.31798        0.75010       -0.89772
H         -3.02080        0.50575        0.82224
N         -0.94263        2.13861        1.07110
C         -1.68863        1.89019       -0.16297
C         -2.56314        3.16719       -0.15453
C         -2.84112        3.36497        1.33411
O         -1.84769        2.59346        2.02309
H         -1.02686        1.95967       -1.02634
C         -3.80690        3.14513       -1.01713
H         -1.91470        3.98216       -0.50905
H         -2.76245        4.41751        1.64062
H         -3.82245        2.96881        1.63402
O         -3.41654        2.85963       -2.34366
H         -4.52450        2.39650       -0.63752
H         -4.30210        4.13016       -0.94497
H         -4.21385        2.75675       -2.87530
O         -2.96633       -1.65302       -0.91932
S         -4.23090       -2.12769        0.04710
O         -5.02933       -0.93885        0.35259
O         -4.87477       -3.09768       -0.83182
O         -3.58069       -2.71933        1.24009
H          3.37847       -3.66087       -0.92071
H          0.49328        0.69185       -3.62381
H          0.98171       -2.94882       -0.96850
H         -1.92552       -2.98358        0.82812
