62
ZTX_138_solv.log	Energy: -1483139.6492081
C          0.97957       -1.94278        0.60981
N          0.37665       -1.80924        1.91289
C         -0.37450       -0.76001        2.24353
C          0.20051       -2.60690       -0.54841
H          1.81490       -2.64257        0.71907
N         -1.06866       -0.75469        3.36681
H         -1.12771       -1.59314        3.93679
H          0.54062       -2.53344        2.60665
N         -0.45773        0.27048        1.38227
C         -0.37469        0.91996       -0.92023
C         -1.85665        0.82750       -0.37049
C         -1.67859        1.03124        1.14621
O         -0.06838        2.18466       -1.38716
O         -0.09743        0.00322       -1.91662
H         -2.51837        0.62734        1.72286
H         -1.53042        2.08327        1.41837
O          0.88537       -3.18004       -1.38879
C          1.53270       -0.60216        0.13442
C          0.52204        0.54250        0.33186
N          1.39113        1.62966        0.70921
C          2.60705        1.20966        1.04979
N          2.69762       -0.13231        0.89705
H          1.79916       -0.68017       -0.92733
N          3.57313        1.98784        1.48093
C          3.91443       -0.87901        1.00560
H          4.54433        1.65992        1.43733
H         -0.68376        0.17329       -2.66786
C         -2.59402       -0.49222       -0.67733
O          4.67926       -0.86172       -0.19047
H          4.50569       -0.49974        1.84778
H          3.67245       -1.92956        1.19149
C          5.73024       -0.02131       -0.25564
O          6.00663        0.80800        0.59224
N          6.44589       -0.26578       -1.37095
H          6.04700       -0.82213       -2.12471
O          7.37317        0.66413       -1.74503
H          8.23659        0.29299       -1.50785
H         -3.62130       -0.26248       -0.36991
H         -2.61453       -0.63138       -1.76763
N         -1.13827       -2.55069       -0.64243
C         -2.23270       -1.82284       -0.00294
C         -3.33660       -2.89405       -0.16608
C         -3.01177       -3.49177       -1.53280
O         -1.64453       -3.14325       -1.79436
H         -2.04787       -1.71761        1.06574
C         -4.77297       -2.42546       -0.00453
H         -3.13717       -3.65149        0.60787
H         -3.11832       -4.58539       -1.55200
H         -3.61875       -3.05114       -2.33772
O         -4.97303       -1.74107        1.21350
H         -5.04917       -1.73097       -0.81131
H         -5.44209       -3.29944       -0.09288
H         -4.77758       -2.35133        1.93511
O         -2.65725        1.78609       -1.05144
S         -3.07095        3.26504       -0.43271
O         -1.76251        3.91473       -0.16621
O         -3.81550        3.83805       -1.54566
O         -3.84618        2.99810        0.78084
H          3.39893        2.98547        1.55764
H         -1.53782        0.08676        3.68498
H          1.10897        2.60505        0.68511
H         -0.60830        2.87906       -0.94788
