62
ZTX_472_solv.log	Energy: -1483138.9816133
C          1.50793        1.27873        0.40409
N          1.61604        1.38539       -1.03100
C          0.89961        0.62813       -1.86191
C          0.44357        2.12640        1.13865
H          2.43677        1.68451        0.81686
N          0.83932        0.90888       -3.15018
H          1.25433        1.76357       -3.50959
H          2.24709        2.08013       -1.42053
N          0.19366       -0.39529       -1.34906
C         -0.94273       -1.43706        0.48895
C         -1.95589       -0.87713       -0.60260
C         -1.08796       -0.84898       -1.86404
O         -0.98020       -2.81041        0.52916
O         -1.16706       -0.96766        1.77802
H         -1.47644       -0.16088       -2.62464
H         -1.01459       -1.85890       -2.29188
O          0.81386        2.89557        1.99935
C          1.40876       -0.19029        0.83529
C          0.49845       -1.04329       -0.07975
N          1.32074       -2.21296       -0.29469
C          2.57869       -2.03950        0.10204
N          2.70438       -0.86178        0.74807
H          1.04824       -0.24984        1.87301
N          3.55491       -2.89968       -0.07880
C          3.80091       -0.48382        1.59393
H          4.51839       -2.57139        0.04192
H         -1.21713        0.00142        1.78448
C         -2.57818        0.49791       -0.30184
O          4.66281        0.46083        0.98499
H          3.39994        0.02060        2.47996
H          4.36223       -1.37281        1.90735
C          5.62519       -0.01314        0.17198
O          5.82621       -1.19315       -0.04513
N          6.29967        1.01295       -0.38791
H          6.24671        1.94105        0.02814
O          7.47113        0.72124       -1.02725
H          7.28017        0.77875       -1.97573
H         -3.31454        0.64979       -1.10171
H         -3.14575        0.44273        0.63702
N         -0.88847        1.78108        0.98730
C         -1.66587        1.72372       -0.26295
C         -2.41470        3.07002       -0.17917
C         -2.67736        3.20422        1.31638
O         -1.70897        2.35690        1.95694
H         -0.99794        1.77838       -1.12416
C         -3.64583        3.21647       -1.06500
H         -1.69550        3.84433       -0.48668
H         -2.54959        4.23178        1.68311
H         -3.67549        2.83461        1.59742
O         -4.11079        4.54846       -1.10007
H         -3.37930        2.94308       -2.09731
H         -4.44396        2.52946       -0.73394
H         -4.52200        4.74760       -0.25054
O         -2.98404       -1.80895       -0.91257
S         -4.22341       -2.27724        0.09059
O         -4.88692       -3.25606       -0.76311
O         -3.54153       -2.85640        1.27109
O         -5.01562       -1.08638        0.40451
H          3.37786       -3.74355       -0.61460
H          0.43637        0.24982       -3.80837
H          0.99760       -3.01466       -0.82693
H         -1.87916       -3.04989        0.85015
