62
ZTX_166_solv.log	Energy: -1483140.3407988
C          1.10256       -1.94037        0.11524
N          0.63022       -2.32977        1.42051
C         -0.05915       -1.50486        2.20589
C          0.21325       -2.13828       -1.13370
H          1.93893       -2.60490       -0.12513
N         -0.64133       -1.94774        3.30515
H         -0.66559       -2.94230        3.50977
H          0.83953       -3.26587        1.75586
N         -0.19884       -0.21690        1.83410
C         -0.33625        1.25953       -0.05515
C         -1.76235        0.90409        0.52099
C         -1.44912        0.51756        1.96984
O         -0.02870        2.59413        0.09077
O         -0.27129        0.84914       -1.37966
H         -2.23445       -0.10443        2.41609
H         -1.31474        1.42299        2.57763
O          0.81337       -2.32420       -2.18670
C          1.62774       -0.50941        0.13940
C          0.67544        0.45441        0.87230
N          1.61274        1.32032        1.54596
C          2.84631        0.82226        1.55730
N          2.88349       -0.35147        0.88303
H          1.77930       -0.17431       -0.89525
N          3.87451        1.38396        2.15218
C          4.08442       -1.04394        0.52489
H          4.82450        1.12522        1.86447
H          0.48589        1.28355       -1.79878
C         -2.53659       -0.19508       -0.23076
O          4.67063       -0.53753       -0.66544
H          4.79676       -1.00451        1.35729
H          3.84581       -2.09087        0.31581
C          5.68914        0.32607       -0.54180
O          6.12251        0.73565        0.52425
N          6.22592        0.66832       -1.73002
H          6.85084        1.47166       -1.75323
O          5.55944        0.40360       -2.89413
H          6.01183       -0.35291       -3.29688
H         -3.54559       -0.11281        0.18944
H         -2.60989        0.07205       -1.29151
N         -1.12851       -2.10840       -1.07511
C         -2.14760       -1.67642       -0.11667
C         -3.28439       -2.62971       -0.55774
C         -3.08473       -2.70460       -2.07033
O         -1.74745       -2.24677       -2.31198
H         -1.86179       -1.96578        0.89439
C         -4.68991       -2.25361       -0.14000
H         -3.04696       -3.60921       -0.11657
H         -3.19595       -3.72697       -2.45829
H         -3.75992       -2.03015       -2.61704
O         -4.71373       -2.13043        1.26632
H         -4.99865       -1.31465       -0.63289
H         -5.38173       -3.04171       -0.48791
H         -5.58619       -1.81204        1.52472
O         -2.58728        2.05911        0.64433
S         -3.25215        2.93093       -0.60380
O         -4.13455        2.03775       -1.35668
O         -3.92831        3.98070        0.15005
O         -2.08415        3.39652       -1.38863
H          3.73715        2.27421        2.62135
H         -1.04735       -1.30068        3.97305
H          1.35483        2.22214        1.93415
H         -0.68618        3.09192       -0.44846
