62
ZTX_366_solv.log	Energy: -1483138.6979853
C          1.14575       -1.94864        0.28016
N          0.71650       -2.24467        1.62455
C          0.05083       -1.36525        2.37030
C          0.21505       -2.22905       -0.92191
H          1.97461       -2.62889        0.05815
N         -0.49363       -1.72912        3.51709
H         -0.50811       -2.70696        3.79142
H          0.94186       -3.15245        2.02146
N         -0.10408       -0.10758        1.91319
C         -0.32927        1.21222       -0.08279
C         -1.72779        0.90905        0.58685
C         -1.34570        0.64060        2.04607
O         -0.01958        2.55428       -0.06874
O         -0.31837        0.68849       -1.36807
H         -2.10832        0.06240        2.58071
H         -1.18059        1.59224        2.56991
O          0.78187       -2.49132       -1.97753
C          1.66443       -0.51777        0.18443
C          0.72584        0.49247        0.86799
N          1.67332        1.41866        1.43910
C          2.91085        0.93139        1.45449
N          2.93823       -0.29477        0.87883
H          1.78729       -0.26084       -0.87626
N          3.95195        1.54594        1.97026
C          4.13765       -0.99098        0.52146
H          4.89428        1.27540        1.66917
H          0.40778        1.09805       -1.86091
C         -2.53321       -0.24104       -0.04591
O          4.65752       -0.56681       -0.73009
H          4.88481       -0.87226        1.31460
H          3.91358       -2.05550        0.40635
C          5.65762        0.32709       -0.72196
O          6.13486        0.82115        0.28795
N          6.12201        0.59485       -1.95861
H          6.72808        1.40464       -2.07355
O          5.40409        0.23097       -3.06360
H          5.84377       -0.55402       -3.42356
H         -3.52994       -0.14411        0.39929
H         -2.65687       -0.04268       -1.11715
N         -1.12332       -2.17853       -0.82769
C         -2.12083       -1.70919        0.13698
C         -3.24830       -2.71406       -0.20850
C         -3.09323       -2.87927       -1.72090
O         -1.78011       -2.39306       -2.03280
H         -1.79788       -1.93731        1.15371
C         -4.65890       -2.41356        0.27023
H         -2.95495       -3.65625        0.27638
H         -3.17980       -3.92880       -2.03708
H         -3.80633       -2.26332       -2.28344
O         -5.26507       -1.41725       -0.52352
H         -5.24009       -3.35166        0.22503
H         -4.61290       -2.11155        1.33244
H         -6.12682       -1.21505       -0.14264
O         -2.54482        2.07415        0.65967
S         -3.26982        2.85237       -0.61596
O         -4.21707        1.92144       -1.23121
O         -3.87389        3.98047        0.08440
O         -2.14563        3.21884       -1.51025
H          3.82160        2.47010        2.37092
H         -0.87589       -1.03666        4.15250
H          1.41766        2.34704        1.76047
H         -0.70184        3.00196       -0.62124
