62
ZTX_387_solv.log	Energy: -1483135.3620822
C          1.11000       -1.79742        0.39457
N          0.60397       -2.09363        1.71162
C         -0.10916       -1.21704        2.41479
C          0.25551       -2.09365       -0.85817
H          1.96315       -2.46355        0.22720
N         -0.70893       -1.57917        3.53380
H         -0.72544       -2.55485        3.81550
H          0.82265       -2.99398        2.12860
N         -0.25457        0.03678        1.94134
C         -0.39246        1.32234       -0.08460
C         -1.82016        1.00760        0.51566
C         -1.51396        0.76489        1.99724
O         -0.10596        2.66894       -0.08234
O         -0.30687        0.77195       -1.35592
H         -2.29310        0.17980        2.49984
H         -1.39326        1.72592        2.51607
O          0.88552       -2.33553       -1.88221
C          1.61538       -0.36053        0.32694
C          0.61953        0.63907        0.93461
N          1.51782        1.59077        1.54665
C          2.74363        1.09710        1.69090
N          2.83394       -0.12856        1.11441
H          1.81446       -0.10442       -0.72212
N          3.72670        1.71643        2.29943
C          4.08516       -0.67654        0.69598
H          4.65639        1.31396        2.35006
H          0.42945        1.19205       -1.82329
C         -2.57259       -0.16585       -0.13959
O          4.52965        0.06469       -0.43455
H          4.82120       -0.62049        1.50927
H          3.95043       -1.73243        0.42919
C          5.76205       -0.22706       -0.88315
O          6.46787       -1.09658       -0.41952
N          6.10207        0.62839       -1.88198
H          5.36318        1.11346       -2.38793
O          7.18004        0.27450       -2.64954
H          7.90057        0.86402       -2.38199
H         -3.58306       -0.07828        0.27830
H         -2.66027        0.02403       -1.21606
N         -1.08767       -2.08515       -0.83599
C         -2.14398       -1.62739        0.06943
C         -3.24646       -2.62584       -0.34891
C         -3.01319       -2.74820       -1.85461
O         -1.66526       -2.31521       -2.08008
H         -1.87869       -1.85205        1.10371
C         -4.67742       -2.28891        0.05179
H         -2.99507       -3.58375        0.12983
H         -3.12742       -3.77850       -2.21970
H         -3.67223       -2.08088       -2.43079
O         -5.54472       -3.38660       -0.13628
H         -4.70151       -2.04260        1.12447
H         -5.03944       -1.40499       -0.50147
H         -5.68093       -3.50569       -1.08370
O         -2.65891        2.15833        0.52500
S         -3.33208        2.89451       -0.80454
O         -4.24575        1.93691       -1.43076
O         -3.97393        4.03808       -0.16597
O         -2.17155        3.24060       -1.65878
H          3.56538        2.62026        2.73312
H         -1.12505       -0.88601        4.14696
H          1.20161        2.46702        1.95180
H         -0.76500        3.09260       -0.67898
