62
ZTX_74_solv.log	Energy: -1483143.6414861
C          1.40867        1.27027        0.56313
N          1.52432        1.51195       -0.85465
C          0.91163        0.75556       -1.76343
C          0.27871        1.92909        1.38639
H          2.29351        1.71818        1.02809
N          0.88466        1.11468       -3.03366
H          1.23215        2.02617       -3.31668
H          2.12117        2.27111       -1.17060
N          0.26992       -0.35700       -1.35649
C         -0.86933       -1.43515        0.44594
C         -1.88006       -0.82744       -0.62020
C         -1.01892       -0.78389       -1.88428
O         -0.93013       -2.82097        0.45538
O         -1.02281       -0.89423        1.71306
H         -1.39971       -0.07784       -2.63170
H         -0.95523       -1.78537       -2.33237
O          0.55670        2.19174        2.55243
C          1.44143       -0.22779        0.85846
C          0.55808       -1.04819       -0.10092
N          1.39130       -2.20411       -0.33720
C          2.65957       -1.98769        0.01371
N          2.76874       -0.81439        0.67330
H          1.11339       -0.39674        1.89219
N          3.65811       -2.80686       -0.21971
C          3.86557       -0.43674        1.52093
H          4.61510       -2.45868       -0.09601
H         -1.92483       -1.12316        2.00245
C         -2.49162        0.54678       -0.27614
O          4.71647        0.52209        0.91906
H          3.45870        0.05228        2.41310
H          4.43829       -1.32239        1.82338
C          5.72851        0.06212        0.16065
O          5.93302       -1.11352       -0.07989
N          6.50237        1.08764       -0.24882
H          6.15653        2.04381       -0.19653
O          7.40968        0.83814       -1.23850
H          8.27354        0.77790       -0.80296
H         -3.30491        0.65993       -1.00179
H         -2.97500        0.49833        0.70894
N         -0.94135        2.16219        0.87781
C         -1.67239        1.84433       -0.34843
C         -2.54366        3.12303       -0.42153
C         -2.84682        3.39789        1.05021
O         -1.84997        2.67947        1.79227
H         -0.99937        1.87626       -1.20592
C         -3.74788        3.12934       -1.34823
H         -1.87012        3.91015       -0.79032
H         -2.78410        4.46695        1.29847
H         -3.82519        3.00404        1.35465
O         -4.82055        2.39709       -0.79753
H         -4.04200        4.18071       -1.51548
H         -3.43975        2.71931       -2.32714
H         -5.52030        2.34981       -1.45850
O         -2.93221       -1.73773       -0.92404
S         -4.14295       -2.10250        0.15159
O         -5.08524       -0.98440        0.14254
O         -4.64709       -3.34920       -0.41094
O         -3.42840       -2.26257        1.44570
H          3.49406       -3.64951       -0.76151
H          0.54320        0.47841       -3.74657
H          1.09075       -2.98398       -0.91386
H         -1.79384       -3.05081        0.84350
