62
ZTX_368_solv.log	Energy: -1483139.4921550
C         -1.58394        0.83493       -0.80049
N         -1.77313        1.18328        0.58565
C         -1.14951        0.53590        1.56841
C         -0.46923        1.50019       -1.63321
H         -2.48234        1.18477       -1.31955
N         -1.23600        0.95780        2.81630
H         -1.68784        1.84250        3.02702
H         -2.54710        1.80270        0.81566
N         -0.37808       -0.52365        1.25637
C          0.96571       -1.51617       -0.46581
C          1.84364       -0.78157        0.62633
C          0.92374       -0.78059        1.85142
O          1.19774       -2.87274       -0.50070
O          1.18656       -0.91661       -1.69862
H          1.19266       -0.00861        2.58200
H          0.95068       -1.76459        2.34028
O         -0.68301        1.57719       -2.83852
C         -1.50715       -0.67859       -0.96553
C         -0.52768       -1.31661        0.03446
N         -1.19284       -2.56618        0.32364
C         -2.49082       -2.50327        0.02521
N         -2.76425       -1.37292       -0.65790
H         -1.20928       -0.90960       -1.99675
N         -3.37054       -3.42526        0.34346
C         -4.01455       -1.14028       -1.33796
H         -4.35049       -3.32852        0.09960
H          0.87518       -1.51631       -2.39165
C          2.32979        0.63082        0.25114
O         -5.04127       -0.79287       -0.43032
H         -3.86758       -0.36129       -2.09480
H         -4.36171       -2.05616       -1.83325
C         -5.19094        0.50754       -0.09839
O         -4.57856        1.42609       -0.60119
N         -6.15837        0.62482        0.83745
H         -6.44080       -0.18666        1.38350
O         -6.26908        1.82897        1.47400
H         -7.04969        2.26269        1.09729
H          3.06045        0.85883        1.03708
H          2.88765        0.58095       -0.69169
N          0.66008        1.97494       -1.08076
C          1.36950        1.83025        0.19255
C          2.11734        3.18171        0.18383
C          2.44146        3.37069       -1.29878
O          1.56060        2.48838       -2.00698
H          0.66115        1.85403        1.02268
C          3.31296        3.32109        1.10504
H          1.38296        3.94330        0.48555
H          2.27497        4.40191       -1.64019
H          3.47004        3.06602       -1.54236
O          3.72341        4.67122        1.05072
H          3.02291        3.02660        2.13101
H          4.12965        2.65203        0.78216
H          4.54937        4.75038        1.54074
O          2.95515       -1.57262        1.03361
S          4.30478       -1.90877        0.12458
O          4.99972       -0.64459       -0.12579
O          4.99506       -2.82860        1.02175
O          3.77103       -2.53740       -1.10663
H         -3.07990       -4.23979        0.87524
H         -0.88267        0.39238        3.58127
H         -0.78195       -3.28162        0.91578
H          2.13837       -2.98318       -0.76935
