62
ZTX_428_solv.log	Energy: -1483139.4770760
C          1.67326        1.07554        0.68552
N          1.91108        1.19927       -0.73208
C          1.23362        0.47287       -1.62219
C          0.60623        1.97285        1.35224
H          2.58105        1.43831        1.17436
N          1.33776        0.72426       -2.91363
H          1.85222        1.53934       -3.23367
H          2.77699        1.67010       -1.02194
N          0.39514       -0.47808       -1.16967
C         -0.93763       -1.47073        0.55907
C         -1.82935       -0.84082       -0.60246
C         -0.86494       -0.84458       -1.79277
O         -1.07020       -2.83879        0.58285
O         -1.22613       -0.99357        1.83234
H         -1.14900       -0.12116       -2.56689
H         -0.82023       -1.84977       -2.23586
O          0.95578        2.70703        2.25149
C          1.47832       -0.39519        1.08071
C          0.56180       -1.16967        0.10368
N          1.30964       -2.39612       -0.07913
C          2.57857       -2.27645        0.30484
N          2.74266       -1.13400        0.99848
H          1.08442       -0.46000        2.10540
N          3.51539       -3.16979        0.07209
C          3.95296       -0.66308        1.60368
H          4.49396       -2.91253        0.19093
H         -1.18665       -0.02378        1.84509
C         -2.39500        0.56324       -0.32908
O          4.57069        0.32852        0.79795
H          3.71324       -0.16288        2.54828
H          4.63522       -1.49754        1.80355
C          5.25845       -0.08721       -0.27596
O          5.66949       -1.21967       -0.43486
N          5.49684        0.92601       -1.14677
H          5.84943        0.66875       -2.06661
O          4.66997        2.02024       -1.15461
H          5.13199        2.73004       -0.68254
H         -3.06143        0.76590       -1.17752
H         -3.02741        0.53646        0.56857
N         -0.72938        1.71827        1.09550
C         -1.41286        1.72742       -0.21024
C         -2.07292        3.12104       -0.16363
C         -2.39347        3.29883        1.31804
O         -1.58427        2.33096        2.00799
H         -0.67885        1.73986       -1.01848
C         -3.25747        3.33536       -1.08495
H         -1.29362        3.84395       -0.44865
H         -2.14786        4.30308        1.68937
H         -3.44303        3.06623        1.55077
O         -3.62573        4.69458       -0.98398
H         -2.97219        3.06872       -2.11952
H         -4.09475        2.67950       -0.78814
H         -4.44916        4.81602       -1.46971
O         -2.87862       -1.71058       -1.00788
S         -4.22514       -2.10926       -0.12095
O         -4.97718       -0.87713        0.12580
O         -4.86225       -3.05235       -1.03331
O         -3.68251       -2.72220        1.11356
H          3.29628       -3.97097       -0.51198
H          0.95563        0.08369       -3.60175
H          0.95821       -3.16662       -0.63884
H         -2.00575       -3.01833        0.82966
