62
ZTX_421_solv.log	Energy: -1483137.4045440
C          1.30342       -1.69604        0.59328
N          0.79050       -1.91672        1.92258
C          0.04133       -1.01605        2.55488
C          0.46321       -2.09866       -0.64152
H          2.17170       -2.35284        0.47533
N         -0.56861       -1.32265        3.68541
H         -0.56614       -2.27876        4.02778
H          1.02518       -2.78206        2.40052
N         -0.12724        0.19953        1.99761
C         -0.25955        1.34439       -0.11098
C         -1.68960        1.04379        0.49145
C         -1.40073        0.90442        1.98934
O         -0.00056        2.69326       -0.20683
O         -0.14457        0.70200       -1.33628
H         -2.17613        0.33848        2.51866
H         -1.30517        1.89939        2.44565
O          1.10309       -2.40129       -1.64215
C          1.77901       -0.25476        0.44088
C          0.74932        0.75767        0.96701
N          1.61105        1.77090        1.52711
C          2.84411        1.31572        1.73215
N          2.97295        0.06189        1.23959
H          1.98461       -0.06054       -0.61930
N          3.79403        2.00094        2.32624
C          4.24794       -0.57057        1.04693
H          4.74660        1.65644        2.38228
H          0.58857        1.10129       -1.82625
C         -2.41038       -0.18588       -0.09111
O          5.01743        0.04633        0.03025
H          4.84074       -0.48754        1.96465
H          4.09224       -1.63190        0.82509
C          4.82565       -0.38183       -1.23758
O          4.06292       -1.26804       -1.55456
N          5.57661        0.36129       -2.08352
H          6.36764        0.89008       -1.72109
O          5.73132       -0.11373       -3.35700
H          5.15769        0.43083       -3.91648
H         -2.48623       -0.07615       -1.17961
H         -3.42764       -0.08840        0.30773
N         -0.88165       -2.12593       -0.62720
C         -1.95911       -1.62024        0.22794
C         -3.03866       -2.66662       -0.13134
C         -2.76983       -2.92464       -1.61365
O         -1.43992       -2.44952       -1.85915
H         -1.70530       -1.76460        1.27911
C         -4.48680       -2.32004        0.18156
H         -2.78493       -3.57460        0.43787
H         -2.82934       -3.99028       -1.87556
H         -3.44482       -2.35010       -2.26529
O         -5.34523       -3.39365       -0.13857
H         -4.57730       -2.02933        1.24408
H         -4.82188       -1.46739       -0.42707
H         -5.10923       -4.14073        0.42518
O         -2.54898        2.17645        0.41319
S         -3.22165        2.80194       -0.97185
O         -4.12359        1.79071       -1.52605
O         -3.87690        3.98545       -0.42660
O         -2.05935        3.09200       -1.84436
H          3.59300        2.92513        2.69580
H         -1.01808       -0.60556        4.24526
H          1.27605        2.68321        1.82136
H         -0.66018        3.05641       -0.84155
