62
ZTX_250_solv.log	Energy: -1483141.1194314
C          1.56255        0.94820        1.02179
N          1.82049        1.31104       -0.34910
C          1.31143        0.61157       -1.36240
C          0.35781        1.54951        1.77432
H          2.39348        1.35192        1.61025
N          1.48811        1.01528       -2.60736
H          1.93672        1.90726       -2.79340
H          2.63183        1.91350       -0.53830
N          0.56132       -0.47591       -1.09252
C         -0.83840       -1.52964        0.54301
C         -1.67837       -0.85115       -0.61497
C         -0.67832       -0.80722       -1.77525
O         -1.00549       -2.89542        0.58356
O         -1.17071       -0.92556        1.74876
H         -0.93533       -0.05373       -2.52917
H         -0.61840       -1.79383       -2.25593
O          0.48229        1.63812        2.99099
C          1.55975       -0.57111        1.18238
C          0.66853       -1.25927        0.13919
N          1.41531       -2.47599       -0.10281
C          2.70912       -2.30186        0.18462
N          2.86898       -1.17888        0.91266
H          1.24219       -0.82699        2.20218
N          3.66293       -3.13691       -0.16124
C          4.09150       -0.65456        1.44601
H          4.63735       -2.85544       -0.08639
H         -0.86081       -1.49026        2.47094
C         -2.26163        0.53614       -0.28790
O          4.53376        0.46014        0.68811
H          3.91176       -0.26631        2.45446
H          4.86046       -1.43393        1.49599
C          5.08096        0.20116       -0.50985
O          5.47239       -0.89159       -0.86610
N          5.20315        1.32279       -1.26530
H          5.41690        1.19312       -2.25216
O          4.40240        2.40647       -1.00782
H          4.93209        3.03501       -0.49302
H         -2.94657        0.72044       -1.12460
H         -2.87893        0.46343        0.61556
N         -0.75235        1.96670        1.14157
C         -1.37098        1.78441       -0.17414
C         -2.19096        3.09340       -0.21893
C         -2.61558        3.26651        1.23964
O         -1.73984        2.42821        2.00496
H         -0.61397        1.84293       -0.95848
C         -3.34508        3.17046       -1.20773
H         -1.47826        3.89201       -0.47787
H         -2.52149        4.30476        1.58744
H         -3.64148        2.91260        1.41975
O         -3.96638        4.43698       -1.16215
H         -2.98089        2.93091       -2.22345
H         -4.12502        2.43865       -0.95159
H         -3.31483        5.09883       -1.42454
O         -2.71693       -1.70297       -1.08672
S         -4.10541       -2.10337       -0.26642
O         -4.88233       -0.87656       -0.07809
O         -4.68291       -3.06678       -1.19693
O         -3.62476       -2.69148        1.00608
H          3.43613       -3.91818       -0.76906
H          1.22035        0.42585       -3.38856
H          1.07706       -3.20203       -0.72740
H         -1.95533       -3.04940        0.79265
