62
ZTX_19_solv.log	Energy: -1483141.6344598
C          1.37778        1.20419        0.65504
N          1.49150        1.51058       -0.74991
C          0.90899        0.77560       -1.69622
C          0.22320        1.78690        1.49829
H          2.24575        1.65928        1.14371
N          0.87529        1.19473       -2.94784
H          1.18697        2.13226       -3.18320
H          2.06536        2.30154       -1.02832
N          0.30556       -0.37646       -1.34516
C         -0.83174       -1.56699        0.38994
C         -1.83455       -0.94500       -0.65717
C         -0.96041       -0.83265       -1.90928
O         -0.94194       -2.94686        0.28853
O         -1.02058       -1.12498        1.68378
H         -1.35385       -0.11648       -2.64033
H         -0.85258       -1.81596       -2.38827
O          0.48041        1.99461        2.67984
C          1.45043       -0.30319        0.88849
C          0.59944       -1.10502       -0.11145
N          1.46466       -2.23308       -0.38234
C          2.72905       -1.98466       -0.02594
N          2.79514       -0.84509        0.69189
H          1.11873       -0.52317        1.91151
N          3.75456       -2.75404       -0.30429
C          3.88707       -0.44999        1.53796
H          4.69856       -2.37306       -0.17844
H         -1.95082       -1.35346        1.89418
C         -2.47563        0.41100       -0.27777
O          4.67639        0.57593        0.96361
H          3.47295       -0.01991        2.45671
H          4.50768       -1.31815        1.79234
C          5.67331        0.20457        0.13919
O          5.93324       -0.94700       -0.15602
N          6.36260        1.29019       -0.26813
H          5.95498        2.21798       -0.16906
O          7.22304        1.13263       -1.31735
H          8.11440        1.13328       -0.93686
H         -3.25575        0.51964       -1.04085
H         -2.99301        0.31095        0.68515
N         -0.99791        2.01038        0.98747
C         -1.70084        1.73703       -0.26621
C         -2.63985        2.96547       -0.27250
C         -2.95409        3.15212        1.21130
O         -1.93191        2.43894        1.92121
H         -1.01959        1.84464       -1.11087
C         -3.87442        2.90491       -1.15990
H         -2.02786        3.81478       -0.61451
H         -2.93893        4.20681        1.51883
H         -3.91830        2.70283        1.49193
O         -4.59266        4.11852       -1.10864
H         -3.57615        2.65107       -2.19351
H         -4.56583        2.12391       -0.81069
H         -4.02008        4.81644       -1.45025
O         -2.86705       -1.86014       -0.97718
S         -4.12252       -2.18033        0.07147
O         -5.17381       -1.22496       -0.29287
O         -4.42214       -3.57200       -0.25163
O         -3.58369       -1.96573        1.43277
H          3.61626       -3.57411       -0.88678
H          0.55802        0.58386       -3.69310
H          1.20765       -2.96020       -1.04449
H         -0.37488       -3.33721        0.96892
