62
ZTX_267_solv.log	Energy: -1483138.4748932
C          1.07418       -1.91346        0.05489
N          0.60819       -2.33479        1.35339
C         -0.06975       -1.53177        2.17164
C          0.17972       -2.07640       -1.19493
H          1.90581       -2.57537       -0.20719
N         -0.64399       -2.00862        3.26101
H         -0.67092       -3.00939        3.43237
H          0.81275       -3.28245        1.65821
N         -0.20485       -0.23159        1.84286
C         -0.33161        1.33676        0.03782
C         -1.76032        0.95812        0.58984
C         -1.44584        0.51599        2.02190
O         -0.13566        2.68368        0.31682
O         -0.14669        1.05335       -1.29898
H         -2.23322       -0.11545        2.45135
H         -1.29499        1.39374        2.66573
O          0.77139       -2.25544       -2.25428
C          1.60549       -0.48524        0.11219
C          0.67275        0.45818        0.89743
N          1.62946        1.28415        1.59393
C          2.85725        0.76803        1.57787
N          2.87735       -0.36384        0.83846
H          1.73068       -0.10601       -0.91022
N          3.89096        1.28476        2.20254
C          4.06469       -1.06625        0.45499
H          4.83768        1.03297        1.89700
H         -0.85842        1.54584       -1.76075
C         -2.53340       -0.12682       -0.19432
O          4.66941       -0.52433       -0.70951
H          4.77434       -1.07860        1.29072
H          3.80560       -2.09821        0.20138
C          5.70289        0.31353       -0.54218
O          6.12315        0.68542        0.54295
N          6.21445        0.74597       -1.71182
H          7.11486        1.22077       -1.68847
O          5.91153        0.10762       -2.88232
H          5.26914        0.67309       -3.33754
H         -3.54501       -0.04022        0.22119
H         -2.60966        0.16903       -1.24831
N         -1.15838       -2.00436       -1.13045
C         -2.15877       -1.61368       -0.13854
C         -3.30432       -2.53998       -0.61099
C         -3.15759       -2.46919       -2.12596
O         -1.79106       -2.10237       -2.36613
H         -1.86466       -1.94815        0.85625
C         -4.70603       -2.25110       -0.09985
H         -3.03111       -3.55154       -0.27474
H         -3.36172       -3.43076       -2.61668
H         -3.79438       -1.68881       -2.57034
O         -4.80528       -2.39081        1.30113
H         -5.05245       -1.25802       -0.43631
H         -5.39037       -2.98926       -0.54397
H         -4.36349       -1.64288        1.72071
O         -2.57928        2.10820        0.70293
S         -3.25589        2.84535       -0.63013
O         -4.57718        2.22636       -0.77354
O         -3.27616        4.24405       -0.21206
O         -2.34980        2.55525       -1.76378
H          3.76279        2.14972        2.71931
H         -1.03789       -1.38221        3.95545
H          1.37058        2.13138        2.09086
H          0.67522        2.96527       -0.13009
