62
ZTX_131_solv.log	Energy: -1483140.0990885
C         -1.42470        1.40697       -0.36930
N         -1.33399        1.25324        1.06141
C         -0.64036        0.27220        1.63644
C         -0.39798        2.26242       -1.14229
H         -2.34861        1.96201       -0.56519
N         -0.43684        0.26792        2.94088
H         -0.70370        1.06859        3.50567
H         -1.84675        1.90156        1.65267
N         -0.10626       -0.69217        0.86037
C          0.78356       -1.19799       -1.29379
C          1.92017       -0.89050       -0.25064
C          1.23032       -1.23687        1.07779
O          0.83720       -2.52399       -1.67734
O          0.90801       -0.33808       -2.37458
H          1.71182       -0.76819        1.94208
H          1.19345       -2.32281        1.23428
O         -0.82102        2.80419       -2.15906
C         -1.54966        0.04737       -1.05259
C         -0.56914       -0.99864       -0.49437
N         -1.39375       -2.18642       -0.49109
C         -2.69206       -1.88984       -0.56464
N         -2.85643       -0.57869       -0.84507
H         -1.38496        0.17882       -2.13059
N         -3.67414       -2.74824       -0.41869
C         -4.05706        0.00700       -1.37678
H         -4.62313       -2.38421       -0.28138
H          0.41976       -0.71378       -3.12133
C          2.52093        0.52798       -0.28537
O         -4.76609        0.76678       -0.41517
H         -3.77824        0.71768       -2.16265
H         -4.70246       -0.76979       -1.80534
C         -5.65011        0.11359        0.36175
O         -5.85472       -1.08546        0.31820
N         -6.30146        0.98850        1.15451
H         -5.93259        1.92742        1.29168
O         -7.03281        0.48065        2.18982
H         -7.96075        0.53366        1.91503
H          3.41175        0.42352        0.34567
H          2.87218        0.71815       -1.30863
N          0.88163        2.38036       -0.75638
C          1.76625        1.76082        0.23223
C          2.69299        2.96807        0.49033
C          2.80078        3.60046       -0.89562
O          1.66516        3.12389       -1.63101
H          1.22005        1.56660        1.15720
C          4.02548        2.69063        1.15657
H          2.13505        3.65068        1.14868
H          2.77463        4.69836       -0.86606
H          3.70256        3.26970       -1.43265
O          4.61346        3.94116        1.44800
H          3.86059        2.09578        2.07422
H          4.67672        2.10065        0.48836
H          5.50799        3.78138        1.76907
O          2.98160       -1.76082       -0.62117
S          3.98386       -2.51259        0.49929
O          5.15219       -2.78933       -0.33051
O          4.18422       -1.51723        1.56136
O          3.23203       -3.69911        0.92324
H         -3.46226       -3.70810       -0.16424
H         -0.02882       -0.53949        3.40068
H         -1.03598       -3.08993       -0.19589
H          1.77839       -2.77138       -1.65394
