62
ZTX_450_solv.log	Energy: -1483139.9784937
C          1.53563        1.00030        0.76240
N          1.71260        1.31031       -0.63550
C          1.11128        0.62044       -1.60500
C          0.40006        1.64567        1.58434
H          2.41521        1.39985        1.27756
N          1.15421        1.04310       -2.85472
H          1.54556        1.95451       -3.07322
H          2.40460        2.01122       -0.88972
N          0.41163       -0.48383       -1.27749
C         -0.82066       -1.63796        0.40625
C         -1.77008       -0.91409       -0.63158
C         -0.87478       -0.83451       -1.87100
O         -0.95956       -3.01554        0.26889
O         -1.00737       -1.23748        1.71436
H         -1.20624       -0.07180       -2.58580
H         -0.83107       -1.80848       -2.37835
O          0.64129        1.82244        2.77422
C          1.51788       -0.51182        0.97643
C          0.63821       -1.25195       -0.04827
N          1.44748       -2.41858       -0.32333
C          2.72345       -2.22712        0.01726
N          2.83473       -1.11504        0.76845
H          1.17001       -0.73189        1.99411
N          3.71736       -3.02683       -0.30158
C          3.99276       -0.67381        1.48768
H          4.67042       -2.66399       -0.23172
H         -1.95144       -1.40520        1.90946
C         -2.34056        0.46313       -0.23793
O          4.62136        0.41557        0.83504
H          3.68059       -0.28703        2.46393
H          4.69320       -1.50346        1.63822
C          5.39991        0.12384       -0.21697
O          5.75402       -1.00358       -0.51868
N          5.72370        1.21673       -0.93762
H          6.48926        1.14391       -1.60464
O          5.47239        2.46987       -0.45112
H          4.69258        2.79164       -0.92896
H         -2.85679        0.38663        0.72748
H         -3.11613        0.62365       -0.99632
N         -0.78863        1.96086        1.04744
C         -1.48276        1.73593       -0.21960
C         -2.33578        3.02315       -0.24364
C         -2.67840        3.21936        1.23216
O         -1.70989        2.45398        1.96311
H         -0.78098        1.79674       -1.05257
C         -3.53453        3.04205       -1.17140
H         -1.66300        3.83322       -0.56241
H         -2.61803        4.27044        1.54603
H         -3.67084        2.81727        1.48485
O         -4.05132        4.35571       -1.15849
H         -3.21636        2.74127       -2.18722
H         -4.29755        2.32001       -0.83151
H         -4.87333        4.35549       -1.66155
O         -2.84317       -1.78942       -0.96220
S         -4.19234       -1.97848        0.03389
O         -3.67180       -1.83234        1.40843
O         -5.12303       -0.92478       -0.36805
O         -4.58926       -3.33533       -0.32663
H          3.53830       -3.80944       -0.92324
H          0.82071        0.45789       -3.61371
H          1.13217       -3.15807       -0.94350
H         -1.74396       -3.18422       -0.27689
