62
ZTX_42_solv.log	Energy: -1483140.9570069
C          1.38783        1.23132        0.65864
N          1.49895        1.52689       -0.74808
C          0.90989        0.78213       -1.68145
C          0.23198        1.82320        1.49732
H          2.25589        1.69082        1.14343
N          0.87508        1.18139       -2.93952
H          1.19020        2.11382       -3.19025
H          2.07933        2.30926       -1.03700
N          0.29927       -0.36034       -1.31144
C         -0.85453       -1.47808        0.47039
C         -1.85127       -0.88198       -0.60093
C         -0.97624       -0.80054       -1.85517
O         -0.89647       -2.85317        0.51805
O         -1.12514       -0.90223        1.70490
H         -1.36544       -0.09336       -2.59700
H         -0.88975       -1.79475       -2.31526
O          0.48650        2.02289        2.68058
C          1.46409       -0.27503        0.90063
C          0.58615       -1.08200       -0.07134
N          1.42725       -2.22681       -0.33148
C          2.69818       -1.99472        0.00097
N          2.79900       -0.82957        0.67833
H          1.16491       -0.47639        1.93790
N          3.70663       -2.79312       -0.26147
C          3.90592       -0.44466        1.51012
H          4.65836       -2.42544       -0.15811
H         -0.70265       -1.43844        2.39169
C         -2.49810        0.46917       -0.23742
O          4.71277        0.55570        0.91592
H          3.50984        0.00827        2.42580
H          4.51050       -1.32113        1.77420
C          5.67401        0.14963        0.06606
O          5.91476       -1.01304       -0.20013
N          6.29819        1.21974       -0.46947
H          6.21857        2.13006       -0.01981
O          7.46987        0.99444       -1.13535
H          7.26126        1.06991       -2.07875
H         -3.28829        0.57288       -0.99081
H         -3.00032        0.37757        0.73310
N         -0.98120        2.08051        0.97963
C         -1.70495        1.78729       -0.25920
C         -2.62493        3.02840       -0.27971
C         -2.92394        3.24365        1.20381
O         -1.90543        2.52753        1.91573
H         -1.03248        1.86795       -1.11434
C         -3.85653        2.96259       -1.16083
H         -2.00849        3.86459       -0.64197
H         -2.89160        4.30314        1.49334
H         -3.89153        2.81193        1.49985
O         -4.44232        4.24724       -1.15900
H         -3.56131        2.65354       -2.18108
H         -4.56742        2.21111       -0.77509
H         -5.28185        4.18944       -1.62896
O         -2.87053       -1.81155       -0.95394
S         -4.12831       -2.30611        0.01326
O         -4.94893       -1.13131        0.31394
O         -4.75235       -3.29063       -0.86356
O         -3.46869       -2.88149        1.20889
H          3.54768       -3.62714       -0.81815
H          0.55184        0.56074       -3.67415
H          1.13039       -2.99828       -0.92143
H         -1.80468       -3.09034        0.81548
