62
ZTX_476_solv.log	Energy: -1483136.1103685
C         -1.61787        1.14692        0.89002
N         -1.14119        1.15937        2.24967
C         -0.27333        0.26083        2.70963
C         -0.85580        1.90573       -0.21971
H         -2.57782        1.67623        0.88472
N          0.27507        0.40508        3.90203
H          0.12339        1.25554        4.43593
H         -1.50988        1.85785        2.88901
N          0.07972       -0.77389        1.91969
C          0.40762       -1.39403       -0.38129
C          1.76760       -1.01783        0.32954
C          1.45008       -1.25290        1.80993
O          0.36715       -2.71363       -0.77411
O          0.19840       -0.52920       -1.44619
H          2.12421       -0.70643        2.47940
H          1.51214       -2.32617        2.03647
O         -1.53551        2.28132       -1.16926
C         -1.85898       -0.28324        0.42340
C         -0.69010       -1.21889        0.75682
N         -1.39249       -2.44796        1.03430
C         -2.69448       -2.25188        1.23120
N         -3.00418       -0.94370        1.06389
H         -2.02103       -0.27582       -0.66330
N         -3.53536       -3.20784        1.55121
C         -4.33654       -0.44322        0.84280
H         -4.52851       -3.03532        1.66040
H         -0.46408       -0.91954       -2.03451
C          2.29028        0.40211        0.04710
O         -4.63144       -0.42777       -0.54001
H         -5.06769       -1.08434        1.34516
H         -4.42260        0.56844        1.25580
C         -4.63298        0.77811       -1.16549
O         -4.71545        1.84746       -0.60130
N         -4.49416        0.59517       -2.49300
H         -4.58856       -0.32368       -2.91914
O         -4.69007        1.66780       -3.31300
H         -3.81065        2.04665       -3.46895
H          2.40151        0.53158       -1.03633
H          3.30323        0.38382        0.46774
N          0.46582        2.13777       -0.15717
C          1.60562        1.65202        0.62423
C          2.50125        2.90666        0.51506
C          2.21989        3.37590       -0.91233
O          0.96903        2.78179       -1.28222
H          1.32327        1.54056        1.67220
C          3.97831        2.74154        0.85168
H          2.08994        3.64423        1.21991
H          2.13860        4.46903       -0.99138
H          2.97748        3.01342       -1.62395
O          4.63224        3.98919        0.94535
H          4.07079        2.25404        1.83444
H          4.47837        2.09530        0.11019
H          4.76727        4.32643        0.05179
O          2.79428       -1.96385        0.04966
S          3.56741       -2.16444       -1.40728
O          4.33129       -0.94460       -1.67615
O          4.37079       -3.34551       -1.11163
O          2.47023       -2.39488       -2.37612
H         -3.19227       -4.15403        1.68547
H          0.82580       -0.34072        4.31435
H         -0.92892       -3.34797        1.11240
H          1.07404       -2.81832       -1.45155
