62
ZTX_393_solv.log	Energy: -1483138.8400974
C          1.15743       -1.91054        0.31478
N          0.73481       -2.18211        1.66627
C          0.05943       -1.29435        2.39319
C          0.22802       -2.22823       -0.87911
H          1.99399       -2.58543        0.10541
N         -0.47575       -1.63867        3.55038
H         -0.47811       -2.61034        3.84608
H          0.97747       -3.07554        2.08488
N         -0.11437       -0.05024        1.90642
C         -0.35847        1.22370       -0.11662
C         -1.75219        0.91435        0.55988
C         -1.36627        0.68294        2.02427
O         -0.06694        2.56976       -0.12918
O         -0.34240        0.67460       -1.39138
H         -2.12025        0.10493        2.57137
H         -1.21509        1.64781        2.52770
O          0.79628       -2.49957       -1.93151
C          1.65786       -0.47599        0.18642
C          0.70655        0.53760        0.84708
N          1.64118        1.49060        1.39528
C          2.88624        1.02232        1.41654
N          2.92812       -0.21891        0.87590
H          1.77770       -0.24244       -0.87989
N          3.92161        1.66569        1.90688
C          4.13508       -0.92333        0.56436
H          4.86701        1.39545        1.61333
H          0.37588        1.08529       -1.89451
C         -2.54061       -0.26110       -0.04755
O          4.67846       -0.54604       -0.69257
H          4.86680       -0.77162        1.36642
H          3.91591       -1.99215        0.48513
C          5.68705        0.33791       -0.69927
O          6.13539        0.88326        0.29782
N          6.13697        0.60163       -1.94190
H          7.01822        1.10371       -2.03057
O          5.81238       -0.21661       -2.98797
H          5.13554        0.25432       -3.49762
H         -3.53978       -0.16508        0.39233
H         -2.66383       -0.09046       -1.12356
N         -1.11112       -2.20571       -0.77996
C         -2.11276       -1.71969        0.17257
C         -3.23082       -2.74435       -0.14509
C         -3.07383       -2.95069       -1.65228
O         -1.76663       -2.45856       -1.97862
H         -1.78741       -1.91824        1.19461
C         -4.64442       -2.44317        0.32431
H         -2.92939       -3.66992        0.36611
H         -3.14857       -4.00979       -1.93823
H         -3.79398       -2.35925       -2.23183
O         -5.25940       -1.47603       -0.49827
H         -5.21696       -3.38748        0.30630
H         -4.60190       -2.10993        1.37726
H         -6.12105       -1.26736       -0.12070
O         -2.58633        2.06871        0.60734
S         -3.32101        2.81012       -0.68474
O         -4.24621        1.85000       -1.28843
O         -3.95087        3.93779       -0.00676
O         -2.20005        3.18399       -1.58019
H          3.78140        2.59644        2.28829
H         -0.86557       -0.93711        4.17116
H          1.37572        2.43262        1.66497
H         -0.75692        2.99907       -0.68682
