62
ZTX_343_solv.log	Energy: -1483135.4507619
C         -1.65805        1.02606        1.00877
N         -1.20110        0.91279        2.37223
C         -0.30715        0.00498        2.76127
C         -0.92030        1.93388       -0.00166
H         -2.63649        1.51807        1.04642
N          0.21982        0.05766        3.97093
H          0.03312        0.85087        4.57713
H         -1.59751        1.53680        3.06948
N          0.09413       -0.93815        1.88455
C          0.45511       -1.40806       -0.43744
C          1.78992       -0.99132        0.29088
C          1.48743       -1.35565        1.74771
O          0.59976       -2.73481       -0.82356
O          0.11019       -0.59639       -1.49812
H          2.13210       -0.82655        2.45951
H          1.59526       -2.43871        1.89833
O         -1.60642        2.39558       -0.90832
C         -1.83956       -0.35522        0.39046
C         -0.66157       -1.29759        0.68440
N         -1.35061       -2.55435        0.85973
C         -2.66292       -2.39567        1.03142
N         -2.99952       -1.09231        0.91257
H         -1.94238       -0.25132       -0.69805
N         -3.48503       -3.38676        1.28696
C         -4.33595       -0.61393        0.66337
H         -4.48309       -3.24470        1.39476
H          0.88336       -0.63150       -2.10108
C          2.22624        0.48247        0.13103
O         -4.54443       -0.45586       -0.72523
H         -5.06861       -1.33264        1.04359
H         -4.49374        0.34138        1.17664
C         -4.59441        0.81227       -1.20881
O         -4.77197        1.80190       -0.53275
N         -4.38262        0.79259       -2.53979
H         -4.41188       -0.07559       -3.06957
O         -4.62188        1.93742       -3.24276
H         -3.76524        2.38580       -3.31773
H          3.26051        0.48499        0.49166
H          2.28271        0.72506       -0.93801
N          0.39094        2.19431        0.10282
C          1.52728        1.64645        0.84553
C          2.38439        2.93156        0.90308
C          2.14614        3.53057       -0.47953
O          0.89306        2.99043       -0.92304
H          1.23401        1.41532        1.86992
C          3.83636        2.84039        1.36595
H          1.88687        3.57826        1.64177
H          2.07820        4.62711       -0.45844
H          2.90900        3.22555       -1.21143
O          4.73116        2.16477        0.51141
H          4.18735        3.86913        1.56020
H          3.85779        2.30690        2.32818
H          4.81631        2.65851       -0.31259
O          2.86347       -1.82693       -0.10670
S          3.58459       -1.69725       -1.60307
O          4.72325       -0.79742       -1.39674
O          3.94370       -3.08594       -1.87656
O          2.55648       -1.13948       -2.51031
H         -3.11909       -4.32942        1.37889
H          0.79157       -0.70365        4.32221
H         -0.86329       -3.43635        0.98918
H         -0.17111       -2.97127       -1.35891
