62
ZTX_64_solv.log	Energy: -1483144.1819600
C          1.37260        1.22229        0.64823
N          1.48325        1.52691       -0.75710
C          0.89849        0.78922       -1.69908
C          0.22065        1.81128        1.49233
H          2.24236        1.67697        1.13423
N          0.86234        1.20324       -2.95230
H          1.17205        2.14043       -3.19168
H          2.05785        2.31617       -1.03885
N          0.29471       -0.36159       -1.34349
C         -0.83227       -1.53011        0.41121
C         -1.84694       -0.91394       -0.64538
C         -0.97504       -0.81088       -1.89860
O         -0.86066       -2.91644        0.37561
O         -1.01101       -1.03392        1.69286
H         -1.36794       -0.09789       -2.63305
H         -0.87598       -1.79828       -2.37086
O          0.48212        2.02323        2.67196
C          1.44752       -0.28513        0.88286
C          0.58992       -1.09144       -0.11018
N          1.45139       -2.21874       -0.38005
C          2.71348       -1.98131       -0.02003
N          2.79064       -0.82802        0.67773
H          1.12329       -0.50378        1.90833
N          3.73245       -2.76783       -0.27765
C          3.88406       -0.43687        1.52354
H          4.67941       -2.39374       -0.15514
H         -1.91125       -1.29113        1.96456
C         -2.49559        0.43428       -0.26543
O          4.68728        0.57548        0.94391
H          3.47329        0.00614        2.43757
H          4.49513       -1.30874        1.78816
C          5.66385        0.18510        0.10435
O          5.92351       -0.97333       -0.16253
N          6.28017        1.26502       -0.42050
H          6.18309        2.17281        0.03075
O          7.46238        1.05728       -1.07337
H          7.26371        1.13327       -2.01887
H         -3.28101        0.54528       -1.02269
H         -3.00961        0.33554        0.70031
N         -1.00188        2.03906        0.98469
C         -1.71503        1.75910       -0.26179
C         -2.64617        2.99275       -0.27096
C         -2.95015        3.19184        1.21394
O         -1.93026        2.47303        1.92160
H         -1.03878        1.85762       -1.11183
C         -3.87628        2.92459       -1.15403
H         -2.03627        3.83755       -0.62410
H         -2.92292        4.24847        1.51406
H         -3.91646        2.75298        1.50343
O         -4.47624        4.20246       -1.13576
H         -3.57704        2.63218       -2.17798
H         -4.57862        2.15996       -0.77829
H         -5.31386        4.14218       -1.60882
O         -2.87588       -1.83584       -0.98814
S         -4.09365       -2.25006        0.06271
O         -5.05646       -1.14897        0.06667
O         -4.56752       -3.49141       -0.53576
O         -3.39128       -2.42695        1.36081
H          3.58876       -3.59348       -0.85077
H          0.54290        0.58976       -3.69451
H          1.17092       -2.98802       -0.98064
H         -1.72240       -3.17922        0.74533
