62
ZTX_263_solv.log	Energy: -1483139.4409942
C         -1.57107        0.82164       -0.75104
N         -1.74568        1.17185        0.63706
C         -1.11519        0.53265        1.62147
C         -0.46235        1.47671       -1.59620
H         -2.47364        1.17310       -1.26266
N         -1.17803        0.97865        2.86249
H         -1.61516        1.87300        3.06316
H         -2.47976        1.83590        0.87174
N         -0.36508       -0.54393        1.31662
C          0.94681       -1.60604       -0.38043
C          1.84194       -0.85337        0.67930
C          0.93457       -0.83041        1.91300
O          1.23886       -2.95897       -0.27537
O          1.09220       -1.14309       -1.67230
H          1.22220       -0.05897        2.63691
H          0.93904       -1.81117        2.40936
O         -0.69018        1.56374       -2.79857
C         -1.49758       -0.69106       -0.91604
C         -0.53919       -1.33689        0.09875
N         -1.23209       -2.57164        0.39721
C         -2.52720       -2.48932        0.08058
N         -2.76774       -1.37260       -0.63202
H         -1.16980       -0.92969       -1.93607
N         -3.42793       -3.38611        0.40918
C         -4.00200       -1.12853       -1.33596
H         -4.40406       -3.27260        0.15655
H          2.04725       -1.24244       -1.86937
C          2.31870        0.56636        0.29665
O         -5.03553       -0.73862       -0.45345
H         -3.82525       -0.36963       -2.10658
H         -4.36050       -2.04748       -1.81701
C         -5.17645        0.57355       -0.16686
O         -4.58385        1.47253       -0.72477
N         -6.04865        0.72035        0.85622
H         -6.67523       -0.04527        1.09769
O         -6.55291        1.97382        1.06803
H         -6.09477        2.31762        1.84944
H          3.04485        0.78846        1.08827
H          2.88528        0.51892       -0.64204
N          0.68567        1.91549       -1.05655
C          1.38254        1.77965        0.22284
C          2.16140        3.11457        0.19739
C          2.49886        3.27135       -1.28500
O          1.59251        2.40932       -1.98662
H          0.67176        1.83024        1.04892
C          3.36443        3.24783        1.11939
H          1.43762        3.89502        0.48014
H          2.36812        4.30195       -1.64291
H          3.51860        2.93028       -1.51784
O          3.94036        4.53216        1.01605
H          3.06339        3.01782        2.15774
H          4.15237        2.53532        0.83478
H          3.27904        5.17831        1.29292
O          2.97237       -1.62992        1.03159
S          4.27998       -1.79786        0.01069
O          5.19877       -0.72027        0.39198
O          4.73946       -3.14199        0.34790
O          3.74797       -1.65350       -1.36255
H         -3.15885       -4.19649        0.95855
H         -0.81913        0.42452        3.63307
H         -0.85642       -3.26023        1.04326
H          0.75067       -3.41897       -0.97298
