62
ZTX_158_solv.log	Energy: -1483138.4858620
C          1.57763        1.03143        0.72063
N          1.77114        1.28237       -0.68755
C          1.15020        0.57662       -1.63348
C          0.46153        1.74806        1.51005
H          2.46862        1.41912        1.22517
N          1.21782        0.93996       -2.90068
H          1.65061        1.82159       -3.15913
H          2.49418        1.94233       -0.96308
N          0.40525       -0.48366       -1.26408
C         -0.88473       -1.51811        0.46140
C         -1.79729       -0.82459       -0.62354
C         -0.88618       -0.82109       -1.85389
O         -1.12661       -2.88300        0.37990
O         -1.06024       -1.03542        1.74254
H         -1.18848       -0.08012       -2.60351
H         -0.86683       -1.81739       -2.31750
O          0.70475        1.96631        2.69298
C          1.50452       -0.47053        0.99040
C          0.59443       -1.20784       -0.00726
N          1.35129       -2.42430       -0.23585
C          2.64168       -2.25682        0.07952
N          2.79578       -1.13154        0.80000
H          1.15277       -0.64124        2.01627
N          3.60738       -3.08874       -0.23781
C          3.97144       -0.71963        1.51008
H          4.57169       -2.75118       -0.18951
H         -2.01277       -1.17025        1.93223
C         -2.31424        0.59162       -0.28379
O          4.63721        0.33379        0.83682
H          3.67456       -0.30327        2.47897
H          4.63995       -1.57301        1.67444
C          5.39864       -0.00346       -0.21420
O          5.70710       -1.14842       -0.50020
N          5.76160        1.06486       -0.95223
H          6.51948        0.95266       -1.62259
O          5.55831        2.33412       -0.48591
H          4.79306        2.67875       -0.97139
H         -3.09079        0.76280       -1.03763
H         -2.83407        0.56882        0.68250
N         -0.71333        2.07724        0.95346
C         -1.40931        1.82986       -0.30886
C         -2.19035        3.16501       -0.39903
C         -2.52201        3.45469        1.06475
O         -1.62401        2.64288        1.83567
H         -0.69825        1.82780       -1.13613
C         -3.36481        3.24929       -1.36029
H         -1.45679        3.90793       -0.74367
H         -2.37226        4.51206        1.32578
H         -3.54202        3.14886        1.33036
O         -4.49824        2.59164       -0.83740
H         -3.58400        4.31709       -1.53879
H         -3.05804        2.81540       -2.32899
H         -5.15662        2.52379       -1.53777
O         -2.90174       -1.64753       -0.95532
S         -4.20455       -1.83938        0.06546
O         -5.16866       -0.81782       -0.35417
O         -4.60310       -3.21324       -0.22842
O         -3.68738       -1.62833        1.43583
H          3.39650       -3.88676       -0.82926
H          0.86964        0.33110       -3.63423
H          1.04100       -3.12053       -0.90851
H         -0.60292       -3.31666        1.06835
