62
ZTX_3_solv.log	Energy: -1483141.8420023
C          1.37411        1.22040        0.62969
N          1.47538        1.52364       -0.77692
C          0.88503        0.78638       -1.71641
C          0.22577        1.80312        1.48121
H          2.24571        1.67754        1.10997
N          0.83621        1.20475       -2.96779
H          1.14250        2.14320       -3.20668
H          2.04096        2.31821       -1.06178
N          0.28952       -0.36745       -1.35812
C         -0.82800       -1.56225        0.38722
C         -1.84196       -0.94568       -0.65195
C         -0.97910       -0.82978       -1.91123
O         -0.93239       -2.94271        0.28771
O         -1.00872       -1.12031        1.68220
H         -1.38216       -0.11504       -2.63836
H         -0.87098       -1.81241       -2.39153
O          0.49457        2.02039        2.65857
C          1.45072       -0.28613        0.86764
C          0.59718       -1.09323       -0.12596
N          1.46614       -2.21700       -0.40183
C          2.73020       -1.96683       -0.04655
N          2.79583       -0.82565        0.66932
H          1.12256       -0.50323        1.89242
N          3.75631       -2.73505       -0.32438
C          3.88499       -0.43327        1.52047
H          4.70071       -2.35609       -0.19343
H         -1.93625       -1.35306        1.89993
C         -2.48512        0.40744       -0.26759
O          4.68683        0.58280        0.94551
H          3.46716        0.00529        2.43349
H          4.49762       -1.30432        1.78431
C          5.70183        0.19729        0.15030
O          5.95957       -0.95885       -0.12998
N          6.41190        1.27288       -0.24663
H          6.01527        2.20674       -0.16138
O          7.30155        1.09890       -1.26828
H          8.18043        1.08091       -0.86007
H         -3.27324        0.51266       -1.02284
H         -2.99246        0.30619        0.70050
N         -1.00302        2.01220        0.98349
C         -1.71475        1.73606       -0.26417
C         -2.65737        2.96095       -0.26412
C         -2.96257        3.14561        1.22216
O         -1.93013        2.43913        1.92444
H         -1.04065        1.84552       -1.11434
C         -3.88769        2.88504       -1.14650
H         -2.05644        3.81438       -0.61190
H         -2.95155        4.20031        1.52968
H         -3.92164        2.68959        1.50933
O         -4.50213        4.15586       -1.11870
H         -3.58600        2.60333       -2.17273
H         -4.58074        2.10956       -0.77572
H         -5.33896        4.08976       -1.59238
O         -2.87310       -1.86553       -0.96298
S         -4.11853       -2.19070        0.09587
O         -5.17737       -1.24084       -0.26104
O         -4.41398       -3.58413       -0.22323
O         -3.57003       -1.97185        1.45266
H          3.61831       -3.55545       -0.90634
H          0.51306        0.59296       -3.70973
H          1.20815       -2.94731       -1.05982
H         -0.35987       -3.32991        0.96533
