62
ZTX_0_solv.log	Energy: -1483143.2148801
C          1.39826        1.19995        0.66496
N          1.49168        1.53256       -0.73572
C          0.84980        0.84882       -1.68181
C          0.28799        1.80912        1.54838
H          2.29379        1.61228        1.14201
N          0.79640        1.30126       -2.92104
H          1.14193        2.23002       -3.14348
H          2.08608        2.30939       -1.01046
N          0.20951       -0.28612       -1.33970
C         -0.90483       -1.50777        0.38739
C         -1.92298       -0.81411       -0.59610
C         -1.09240       -0.67330       -1.87415
O         -1.05605       -2.87896        0.22745
O         -1.04102       -1.12091        1.70548
H         -1.48811        0.09399       -2.55084
H         -1.03992       -1.63393       -2.40534
O          0.58370        1.98896        2.72549
C          1.41993       -0.31408        0.86441
C          0.52223       -1.06146       -0.13944
N          1.35178       -2.19991       -0.47285
C          2.62819       -2.00588       -0.12665
N          2.74152       -0.89881        0.63541
H          1.09595       -0.54553        1.88726
N          3.62461       -2.79330       -0.45448
C          3.84928       -0.58649        1.49545
H          4.58394       -2.45632       -0.31365
H         -1.97170       -1.33058        1.93330
C         -2.50381        0.54410       -0.14222
O          4.69275        0.41559        0.95628
H          3.45264       -0.16478        2.42557
H          4.42458       -1.49215        1.72457
C          5.69384        0.01640        0.15051
O          5.90254       -1.13881       -0.17167
N          6.45202        1.07365       -0.20370
H          6.09877        2.02080       -0.08255
O          7.34103        0.89876       -1.22564
H          8.21474        0.82448       -0.81256
H         -3.32057        0.69481       -0.85697
H         -2.96437        0.43824        0.84828
N         -0.93504        2.08823        1.07179
C         -1.68457        1.84098       -0.15844
C         -2.57461        3.10772       -0.13860
C         -2.84173        3.30076        1.35215
O         -1.82789        2.54733        2.03206
H         -1.03020        1.92464       -1.02542
C         -3.82604        3.07072       -0.98957
H         -1.93924        3.93083       -0.49799
H         -2.77766        4.35418        1.65862
H         -3.81340        2.88787        1.66092
O         -3.44486        2.78804       -2.31932
H         -4.53137        2.31408       -0.60271
H         -4.33195        4.04998       -0.91373
H         -4.24590        2.67084       -2.84239
O         -2.99435       -1.68540       -0.91438
S         -4.22944       -1.99530        0.15957
O         -5.25146       -0.98428       -0.13026
O         -4.59729       -3.35933       -0.20904
O         -3.63989       -1.85946        1.51007
H          3.45213       -3.59196       -1.05698
H          0.43364        0.72197       -3.67081
H          1.06264       -2.89149       -1.15924
H         -0.47153       -3.31494        0.86367
