62
ZTX_478_solv.log	Energy: -1483141.1204668
C          1.12375       -1.94247        0.22377
N          0.69484       -2.27356        1.56071
C          0.03368       -1.41415        2.33384
C          0.19116       -2.18672       -0.98410
H          1.94932       -2.62021       -0.01693
N         -0.51362       -1.80996        3.46842
H         -0.52923       -2.79497        3.71579
H          0.91048       -3.19607        1.92807
N         -0.11472       -0.14224        1.91579
C         -0.31240        1.24951       -0.02092
C         -1.72631        0.93254        0.63219
C         -1.34625        0.61928        2.08154
O         -0.00838        2.59971        0.07789
O         -0.19005        0.77946       -1.31822
H         -2.11324        0.03390        2.60180
H         -1.16528        1.55164        2.63435
O          0.75316       -2.43466       -2.04602
C          1.64929       -0.51219        0.16577
C          0.72252        0.48226        0.89136
N          1.68220        1.37652        1.49164
C          2.91549        0.87789        1.48279
N          2.92967       -0.32340        0.85954
H          1.75723       -0.21176       -0.88426
N          3.96269        1.46344        2.01908
C          4.12031       -1.02556        0.48600
H          4.90151        1.19529        1.70434
H         -0.86795        1.23805       -1.84601
C         -2.53610       -0.20184       -0.02607
O          4.65300       -0.57379       -0.75022
H          4.86565       -0.93967        1.28547
H          3.88289       -2.08328        0.33959
C          5.66528        0.30533       -0.71005
O          6.13755        0.76898        0.31662
N          6.14806        0.59488       -1.93449
H          6.76802        1.39722       -2.02445
O          5.44207        0.26209       -3.05663
H          5.87458       -0.52382       -3.42319
H         -3.53071       -0.11820        0.42540
H         -2.67340        0.02230       -1.09249
N         -1.14454       -2.10957       -0.88814
C         -2.13229       -1.67747        0.10219
C         -3.26533       -2.65623       -0.28519
C         -3.15266       -2.68252       -1.80641
O         -1.80626       -2.28297       -2.09989
H         -1.80709       -1.94895        1.10746
C         -4.66394       -2.44031        0.28708
H         -2.94260       -3.63681        0.09637
H         -3.33253       -3.68231       -2.22569
H         -3.81825       -1.95535       -2.29509
O         -5.36573       -1.31219       -0.18384
H         -5.24402       -3.36196        0.10565
H         -4.57659       -2.32616        1.37819
H         -5.58377       -1.44541       -1.11346
O         -2.54249        2.09643        0.71054
S         -3.23208        2.79717       -0.62813
O         -4.39949        1.99317       -0.98752
O         -3.52659        4.13248       -0.12240
O         -2.14764        2.75437       -1.64421
H          3.84111        2.37417        2.45198
H         -0.89346       -1.13518        4.12397
H          1.43710        2.29054        1.85902
H         -0.61905        3.06072       -0.52531
