62
ZTX_208_solv.log	Energy: -1483140.3263787
C          1.06766       -1.94101        0.02956
N          0.59992       -2.37776        1.32240
C         -0.07119       -1.58186        2.15325
C          0.17122       -2.08243       -1.22206
H          1.89522       -2.60412       -0.24231
N         -0.64515       -2.07028        3.23768
H         -0.68019       -3.07314        3.39428
H          0.79999       -3.33045        1.61421
N         -0.19881       -0.27669        1.84269
C         -0.31631        1.31868        0.06055
C         -1.74552        0.94487        0.61110
C         -1.43364        0.47770        2.03577
O         -0.10727        2.66047        0.35507
O         -0.13761        1.04985       -1.28022
H         -2.22616       -0.15543        2.45262
H         -1.27547        1.34286        2.69472
O          0.76165       -2.25562       -2.28309
C          1.60818       -0.51660        0.10651
C          0.68267        0.42109        0.90685
N          1.64503        1.22969        1.61539
C          2.87009        0.70827        1.58746
N          2.88273       -0.41310        0.83130
H          1.73426       -0.12348       -0.91060
N          3.90751        1.21216        2.21664
C          4.06791       -1.10164        0.41673
H          4.85289        0.96043        1.90848
H         -0.84741        1.55268       -1.73361
C         -2.53072       -0.12318       -0.18229
O          4.65993       -0.52335       -0.73691
H          4.78619       -1.13799        1.24434
H          3.80774       -2.12602        0.13512
C          5.69544        0.30931       -0.55459
O          6.13355        0.63908        0.53703
N          6.24274        0.71822       -1.71619
H          6.88741        1.50545       -1.68726
O          5.58338        0.53372       -2.89937
H          6.02101       -0.21139       -3.33872
H         -3.53111       -0.04976        0.25937
H         -2.62484        0.19213       -1.22914
N         -1.16641       -1.99619       -1.15755
C         -2.16338       -1.61143       -0.15916
C         -3.32143       -2.51409       -0.64484
C         -3.16170       -2.45751       -2.16045
O         -1.79928       -2.07121       -2.39361
H         -1.87089       -1.96681        0.82845
C         -4.71288       -2.17164       -0.14039
H         -3.07548       -3.53108       -0.30091
H         -3.34825       -3.42661       -2.64348
H         -3.80379       -1.69040       -2.61911
O         -4.75761       -2.09121        1.26816
H         -5.04016       -1.19580       -0.52873
H         -5.42379       -2.92341       -0.52618
H         -4.51720       -2.95561        1.62435
O         -2.55498        2.10007        0.74193
S         -3.23116        2.85744       -0.57945
O         -2.32882        2.57872       -1.71904
O         -4.55584        2.24694       -0.72878
O         -3.24424        4.25068       -0.14292
H          3.78404        2.07069        2.74519
H         -1.03685       -1.45106        3.93972
H          1.39187        2.07152        2.12434
H          0.70539        2.93924       -0.09042
