62
ZTX_87_solv.log	Energy: -1483142.8934697
C          1.38482        1.20010        0.64236
N          1.49205        1.50141       -0.76432
C          0.90861        0.76209       -1.70636
C          0.23808        1.78813        1.49184
H          2.25627        1.65568        1.12434
N          0.87160        1.17686       -2.95931
H          1.17846        2.11508       -3.19850
H          2.06410        2.29204       -1.04759
N          0.30686       -0.39071       -1.35178
C         -0.81053       -1.58817        0.38221
C         -1.82902       -0.93966       -0.63862
C         -0.97162       -0.82987       -1.90256
O         -0.86569       -2.97384        0.26472
O         -0.98959       -1.18432        1.69010
H         -1.36741       -0.10420       -2.62288
H         -0.88113       -1.80964       -2.39215
O          0.50384        1.99965        2.67068
C          1.45863       -0.30580        0.88058
C          0.61143       -1.11867       -0.11602
N          1.48710       -2.23517       -0.38553
C          2.74433       -1.99106       -0.01563
N          2.80687       -0.84119        0.68823
H          1.12658       -0.52358        1.90396
N          3.77176       -2.76867       -0.26829
C          3.89277       -0.43902        1.53774
H          4.71412       -2.38554       -0.14017
H         -1.91568       -1.40927        1.91173
C         -2.47103        0.40655       -0.24626
O          4.68485        0.58420        0.96145
H          3.47352       -0.00304        2.45143
H          4.51358       -1.30413        1.80204
C          5.68365        0.20790        0.14185
O          5.94466       -0.94530       -0.14563
N          6.37389        1.29148       -0.27025
H          5.96478        2.21945       -0.17920
O          7.23723        1.12773       -1.31626
H          8.12752        1.13103       -0.93334
H         -3.27079        0.51296       -0.98856
H         -2.96066        0.30839        0.73106
N         -0.98515        2.01472        0.98802
C         -1.69541        1.73178       -0.25787
C         -2.63168        2.96128       -0.27191
C         -2.93708        3.16426        1.21198
O         -1.91162        2.45652        1.92318
H         -1.01978        1.82914       -1.10818
C         -3.86110        2.88227       -1.15534
H         -2.02564        3.80740       -0.62844
H         -2.91752        4.22213        1.50796
H         -3.90028        2.71948        1.50289
O         -4.46839        4.15662       -1.14366
H         -3.55932        2.58646       -2.17760
H         -4.55943        2.11534       -0.77666
H         -5.30550        4.08908       -1.61667
O         -2.85608       -1.88218       -0.92879
S         -4.16593       -2.13872        0.10432
O         -5.16837       -1.14856       -0.28707
O         -4.48931       -3.52166       -0.22911
O         -3.62097       -1.94286        1.46307
H          3.63939       -3.59034       -0.84972
H          0.55432        0.56254       -3.70181
H          1.20456       -3.01843       -0.96631
H         -1.64750       -3.20015       -0.26356
