62
ZTX_381_solv.log	Energy: -1483140.0513664
C         -1.47330        1.52286        0.54966
N         -0.94946        1.85108        1.85227
C         -0.09925        1.06003        2.50368
C         -0.72338        1.95639       -0.72932
H         -2.41285        2.07516        0.43695
N          0.49936        1.48016        3.60279
H          0.41320        2.44904        3.89552
H         -1.26309        2.70663        2.30197
N          0.18253       -0.15994        2.00033
C          0.36614       -1.39333       -0.04505
C          1.77941       -0.88768        0.47079
C          1.53092       -0.71569        1.97139
O          0.28575       -2.77760       -0.00399
O          0.02665       -0.88520       -1.28896
H          2.25217       -0.03872        2.44426
H          1.56768       -1.69269        2.47262
O         -1.41764        2.11996       -1.72614
C         -1.78855        0.03569        0.46398
C         -0.66046       -0.84607        1.02079
N         -1.41946       -1.90708        1.63643
C         -2.70279       -1.58874        1.79251
N         -2.95100       -0.36590        1.26693
H         -1.96216       -0.23641       -0.58596
N         -3.57933       -2.36753        2.38337
C         -4.25877        0.12592        0.93265
H         -4.55731       -2.11177        2.46399
H          0.70390       -1.20562       -1.91214
C          2.32794        0.39342       -0.18882
O         -4.62080       -0.29440       -0.36914
H         -4.99991       -0.26353        1.63805
H         -4.26824        1.21977        0.99133
C         -4.68785        0.64352       -1.33537
O         -4.60345        1.84089       -1.14736
N         -4.82835        0.09485       -2.56341
H         -5.13305        0.70643       -3.31770
O         -5.17475       -1.22210       -2.70219
H         -4.36415       -1.68487       -2.96240
H          3.36214        0.42494        0.17307
H          2.38072        0.25622       -1.27730
N          0.60668        2.15008       -0.74759
C          1.74448        1.78463        0.09675
C          2.70489        2.92602       -0.31864
C          2.37786        3.11191       -1.79954
O          1.10603        2.48195       -2.00204
H          1.50333        1.93770        1.14894
C          4.17716        2.71416       -0.03709
H          2.37490        3.81724        0.23541
H          2.31044        4.17134       -2.08442
H          3.09760        2.60158       -2.45625
O          4.33171        2.47066        1.34506
H          4.56619        1.87474       -0.64028
H          4.72793        3.61877       -0.35184
H          5.25535        2.24838        1.50845
O          2.76812       -1.90839        0.37963
S          3.39550       -2.41748       -1.07085
O          2.20691       -2.49057       -1.96136
O          4.37891       -1.42029       -1.49343
O          3.94397       -3.71517       -0.69713
H         -3.27557       -3.24919        2.78574
H          1.03868        0.84100        4.17759
H         -0.99695       -2.76693        1.97331
H          0.88636       -3.10584       -0.69707
