62
ZTX_130_solv.log	Energy: -1483135.9765019
C         -1.45329        1.32244        1.05057
N         -0.77811        1.14892        2.31341
C          0.17890        0.23962        2.48859
C         -0.87535        2.29098       -0.00661
H         -2.41439        1.80061        1.26679
N          0.89313        0.21898        3.59916
H          0.79737        0.96235        4.28423
H         -1.07139        1.71219        3.10650
N          0.44345       -0.62455        1.48938
C          0.40301       -0.91684       -0.88843
C          1.85582       -0.59337       -0.34450
C          1.78990       -1.05189        1.12561
O          0.34880       -2.12524       -1.55698
O         -0.10852        0.06457       -1.71576
H          2.54595       -0.56440        1.75127
H          1.88494       -2.13854        1.23608
O         -1.69080        2.81037       -0.75995
C         -1.73448       -0.03237        0.40921
C         -0.49616       -0.94261        0.41435
N         -1.09854       -2.23701        0.62347
C         -2.33760       -2.13597        1.09910
N         -2.72328       -0.84020        1.14191
H         -2.07010        0.12005       -0.62452
N         -3.07331       -3.16141        1.46188
C         -4.08766       -0.44095        1.33853
H         -4.04114       -3.05001        1.74400
H          0.46117        0.14365       -2.49378
C          2.28742        0.88330       -0.46025
O         -4.90136       -0.72202        0.21417
H         -4.51592       -1.00334        2.17546
H         -4.12036        0.62611        1.58359
C         -5.03643        0.25023       -0.71532
O         -4.50007        1.33473       -0.65988
N         -5.89660       -0.16338       -1.67557
H         -6.08373       -1.15826       -1.78537
O         -5.92913        0.56321       -2.83437
H         -6.75154        1.07458       -2.80594
H          3.35780        0.84983       -0.22535
H          2.21931        1.18168       -1.51593
N          0.43905        2.56208       -0.09062
C          1.68903        1.99242        0.41544
C          2.53085        3.29297        0.42907
C          2.01826        4.03185       -0.80786
O          0.76851        3.41174       -1.14034
H          1.57275        1.68596        1.45551
C          4.04167        3.17931        0.54043
H          2.20030        3.84122        1.32293
H          1.85713        5.10265       -0.61674
H          2.68054        3.90681       -1.67411
O          4.61577        2.77161       -0.68242
H          4.43445        4.16631        0.84250
H          4.28193        2.47179        1.35499
H          5.56537        2.67581       -0.54809
O          2.80957       -1.25122       -1.17136
S          3.53091       -2.69382       -0.80362
O          4.31762       -2.93083       -2.00658
O          4.29841       -2.46567        0.42283
O          2.39040       -3.62713       -0.61925
H         -2.68119       -4.09770        1.43433
H          1.52309       -0.55149        3.79752
H         -0.59135       -3.11210        0.52969
H          1.02703       -2.75641       -1.22732
