62
ZTX_279_solv.log	Energy: -1483138.1005273
C         -1.48983        1.39383       -0.37369
N         -1.38307        1.21000        1.05278
C         -0.62412        0.26254        1.60090
C         -0.51497        2.32904       -1.12177
H         -2.44531        1.89940       -0.55206
N         -0.40328        0.24520        2.90234
H         -0.70843        1.01833        3.48569
H         -1.92577        1.81535        1.66265
N         -0.04316       -0.65071        0.79825
C          0.83920       -1.10489       -1.37586
C          1.97767       -0.77734       -0.33587
C          1.31231       -1.15117        0.99888
O          1.01426       -2.41431       -1.79022
O          0.77790       -0.22864       -2.44649
H          1.79015       -0.66693        1.85759
H          1.31601       -2.23808        1.15207
O         -0.97567        2.89974       -2.10573
C         -1.54279        0.04505       -1.08924
C         -0.50637       -0.95864       -0.55163
N         -1.27018       -2.18938       -0.55871
C         -2.58575       -1.95218       -0.61310
N         -2.81355       -0.65253       -0.89018
H         -1.38231        0.20148       -2.16379
N         -3.51995       -2.85884       -0.45364
C         -4.04882       -0.11058       -1.38594
H         -4.48363       -2.54372       -0.29924
H          1.60241       -0.29774       -2.94947
C          2.49013        0.68055       -0.36200
O         -4.76399        0.61070       -0.39986
H         -3.81802        0.61937       -2.16966
H         -4.67241       -0.90858       -1.80795
C         -5.56452       -0.09066        0.42414
O         -5.73686       -1.29337        0.36246
N         -6.11133        0.73260        1.34360
H         -6.12746        1.73684        1.17412
O         -7.15401        0.24528        2.08017
H         -6.79759        0.06990        2.96413
H          3.39538        0.61498        0.25069
H          2.81220        0.91637       -1.38630
N          0.76623        2.47667       -0.75094
C          1.68613        1.85909        0.20334
C          2.55977        3.10045        0.50619
C          2.61881        3.80025       -0.84876
O          1.50997        3.28694       -1.60059
H          1.16396        1.60815        1.12689
C          3.91257        2.83723        1.13216
H          1.97487        3.72038        1.20218
H          2.52449        4.89197       -0.76519
H          3.53340        3.55381       -1.40852
O          3.71131        2.10873        2.32501
H          4.55994        2.28542        0.42951
H          4.40624        3.80620        1.32942
H          4.55284        1.71724        2.58452
O          3.09347       -1.57575       -0.68987
S          4.13947       -2.21746        0.43522
O          4.32458       -1.17255        1.45577
O          3.46649       -3.42047        0.94223
O          5.30822       -2.48019       -0.40205
H         -3.25615       -3.80930       -0.21216
H          0.05765       -0.54530        3.34105
H         -0.88340       -3.05580       -0.19236
H          0.30555       -2.62571       -2.41494
