62
ZTX_256_solv.log	Energy: -1483136.8939521
C         -1.30013        1.70314        0.56322
N         -0.78517        1.94062        1.88882
C         -0.03733        1.04703        2.53259
C         -0.46013        2.08899       -0.67721
H         -2.16705        2.36040        0.43732
N          0.57624        1.36914        3.65686
H          0.57879        2.33078        3.98337
H         -1.01429        2.81436        2.35392
N          0.12653       -0.17770        1.99381
C          0.25722       -1.34709       -0.10187
C          1.68786       -1.03917        0.49574
C          1.40011       -0.88294        1.99223
O         -0.00211       -2.69701       -0.18004
O          0.14227       -0.72039       -1.33528
H          2.17585       -0.31069        2.51426
H          1.30494       -1.87255        2.46003
O         -1.09927        2.37832       -1.68236
C         -1.77963        0.26121        0.43266
C         -0.75043       -0.74633        0.96888
N         -1.61324       -1.75226        1.54072
C         -2.84315       -1.28977        1.74836
N         -2.96990       -0.04095        1.24270
H         -1.99317        0.05286       -0.62326
N         -3.79266       -1.96440        2.35506
C         -4.24423        0.59259        1.05044
H         -4.74294       -1.61405        2.41345
H         -0.59373       -1.12243       -1.81863
C          2.40791        0.18375       -0.10226
O         -5.02133       -0.03420        0.04569
H         -4.83079        0.52135        1.97327
H         -4.08734        1.65096        0.81592
C         -4.85246        0.39207       -1.22582
O         -4.05499        1.23857       -1.56558
N         -5.73653       -0.23772       -2.03340
H         -6.18208       -1.09743       -1.71840
O         -5.51746       -0.15478       -3.38072
H         -6.17976        0.46466       -3.72207
H          2.47898        0.06036       -1.18955
H          3.42706        0.08945        0.29249
N          0.88425        2.12130       -0.66002
C          1.95883        1.62267        0.20179
C          3.04068        2.66252       -0.16636
C          2.79200        2.86552       -1.65980
O          1.44302        2.44245       -1.89406
H          1.70470        1.77965        1.25114
C          4.48086        2.33034        0.20342
H          2.77635        3.58712        0.36781
H          2.89983        3.91424       -1.97023
H          3.44783        2.23238       -2.27710
O          5.32676        3.45241        0.06806
H          4.51931        2.02606        1.26068
H          4.85422        1.48521       -0.40045
H          5.45574        3.62214       -0.87270
O          2.54747       -2.17254        0.42918
S          3.21792       -2.81439       -0.94956
O          4.11453       -1.80763       -1.52048
O          3.87902       -3.98820       -0.39061
O          2.05398       -3.12004       -1.81454
H         -3.59358       -2.88483        2.73484
H          1.02597        0.65965        4.22604
H         -1.27813       -2.65990        1.84896
H          0.65692       -3.06876       -0.81034
