62
ZTX_514_solv.log	Energy: -1483140.3881633
C         -1.56602        1.02540       -0.77578
N         -1.76641        1.30731        0.62527
C         -1.15947        0.61088        1.58639
C         -0.43186        1.71048       -1.56847
H         -2.44761        1.41319       -1.29713
N         -1.23872        0.99166        2.84770
H         -1.66945        1.87919        3.08874
H         -2.49050        1.97267        0.88510
N         -0.41519       -0.45744        1.23963
C          0.88685       -1.47470       -0.48578
C          1.79642       -0.78750        0.62444
C          0.86948       -0.78741        1.84228
O          1.05870       -2.85083       -0.48947
O          1.05258       -0.92168       -1.74640
H          1.16106       -0.04814        2.59760
H          0.84936       -1.78538        2.30228
O         -0.65269        1.88904       -2.76248
C         -1.50698       -0.48218       -1.01227
C         -0.58769       -1.20026       -0.00945
N         -1.33120       -2.41969        0.23049
C         -2.62306       -2.26463       -0.07252
N         -2.79573       -1.13648       -0.78696
H         -1.16982       -0.67658       -2.03854
N         -3.57940       -3.10702        0.24889
C         -3.98248       -0.73557       -1.48378
H         -4.54602       -2.77530        0.21470
H          1.98288       -1.07205       -1.99350
C          2.32648        0.62076        0.29065
O         -4.64500        0.31774       -0.80715
H         -3.70139       -0.32350       -2.45928
H         -4.64875       -1.59327       -1.63437
C         -5.38961       -0.02097        0.25542
O         -5.68407       -1.16712        0.55116
N         -5.75255        1.04775        0.99284
H         -6.49856        0.93236        1.67580
O         -5.56596        2.31654        0.51855
H         -4.79407        2.66724        0.98873
H          3.08412        0.81163        1.05856
H          2.87206        0.58918       -0.66207
N          0.72896        2.06637       -0.99963
C          1.41098        1.85375        0.27698
C          2.18535        3.19047        0.33168
C          2.59636        3.37274       -1.12570
O          1.65135        2.60886       -1.88969
H          0.69192        1.86816        1.09759
C          3.28153        3.37154        1.37862
H          1.42837        3.95338        0.56904
H          2.55553        4.42233       -1.44845
H          3.59449        2.96190       -1.33940
O          4.45046        2.60361        1.20221
H          3.52684        4.44691        1.42294
H          2.86754        3.09684        2.36070
H          4.92674        2.93093        0.43044
O          2.89139       -1.61877        0.99358
S          4.18399       -1.89125       -0.01253
O          5.04624       -0.71197        0.05672
O          4.73933       -3.10633        0.57091
O          3.55606       -2.08644       -1.34614
H         -3.35663       -3.90082        0.84159
H         -0.89911        0.39278        3.59334
H         -0.99221       -3.13987        0.86151
H          1.95645       -3.00893       -0.83357
