62
ZTX_235_solv.log	Energy: -1483138.8020076
C         -1.25509        1.78117        0.54358
N         -0.72567        2.04915        1.85921
C         -0.00478        1.16065        2.54064
C         -0.42183        2.10262       -0.71647
H         -2.10507        2.45715        0.40367
N          0.62236        1.51012        3.64885
H          0.65404        2.48364        3.93660
H         -0.92559        2.94753        2.28959
N          0.11986       -0.09049        2.05496
C          0.17224       -1.42314        0.07348
C          1.62585       -1.08239        0.59384
C          1.37439       -0.83700        2.08485
O         -0.05323       -2.79017        0.20677
O         -0.08280       -0.99622       -1.21338
H          2.17147       -0.25251        2.55959
H          1.25973       -1.79087        2.61845
O         -1.06103        2.40000       -1.71924
C         -1.77345        0.34941        0.45546
C         -0.79692       -0.67085        1.06981
N         -1.71258       -1.58587        1.70724
C         -2.93055       -1.07049        1.84224
N         -3.00619        0.13367        1.23100
H         -1.94731        0.09266       -0.59672
N         -3.91540       -1.66442        2.47618
C         -4.26160        0.74922        0.90048
H         -4.84944       -1.27062        2.50242
H          0.60670       -1.40987       -1.77068
C          2.36416        0.09333       -0.07612
O         -4.97907        0.02463       -0.08239
H         -4.90483        0.77617        1.78663
H         -4.08222        1.77744        0.56871
C         -4.75201        0.34015       -1.37726
O         -3.95579        1.17267       -1.75201
N         -5.58141       -0.37997       -2.16785
H         -6.02238       -1.22058       -1.79929
O         -5.29236       -0.41408       -3.50434
H         -5.93785        0.16765       -3.93295
H          3.38693       -0.02051        0.30330
H          2.41074       -0.07088       -1.16020
N          0.91972        2.04213       -0.72477
C          1.97523        1.55736        0.16476
C          3.09199        2.54231       -0.24841
C          2.83058        2.73917       -1.74237
O          1.48818        2.28720       -1.96776
H          1.72403        1.77224        1.20384
C          4.51771        2.15075        0.08538
H          2.88032        3.48616        0.27555
H          2.91641        3.79011       -2.05159
H          3.48973        2.11823       -2.36668
O          5.33776        3.25538       -0.23190
H          4.58596        1.89003        1.15820
H          4.81969        1.26191       -0.49586
H          6.25636        2.97697       -0.14596
O          2.43288       -2.25179        0.50782
S          3.13727       -2.75675       -0.94137
O          4.42071       -2.06026       -1.01134
O          3.21614       -4.19358       -0.70167
O          2.17587       -2.35883       -1.98952
H         -3.75463       -2.55752        2.93139
H          1.04126        0.80868        4.25074
H         -1.41957       -2.48366        2.08002
H          0.79094       -3.21498        0.42780
