62
ZTX_110_solv.log	Energy: -1483140.7746275
C          1.38798        1.23071        0.65506
N          1.50086        1.52241       -0.75234
C          0.91211        0.77569       -1.68438
C          0.23169        1.82507        1.49100
H          2.25589        1.69073        1.13959
N          0.87875        1.17173       -2.94354
H          1.19618        2.10273       -3.19656
H          2.08268        2.30313       -1.04280
N          0.30017       -0.36512       -1.31181
C         -0.85661       -1.47759        0.47117
C         -1.85153       -0.88475       -0.60371
C         -0.97415       -0.80730       -1.85663
O         -0.89889       -2.85252        0.52316
O         -1.12908       -0.89787        1.70340
H         -1.36198       -0.10260       -2.60151
H         -0.88652       -1.80302       -2.31325
O          0.48593        2.02937        2.67363
C          1.46257       -0.27502        0.90135
C          0.58519       -1.08377       -0.06957
N          1.42608       -2.22964       -0.32612
C          2.69685       -1.99718        0.00683
N          2.79733       -0.83085        0.68214
H          1.16197       -0.47319        1.93884
N          3.70547       -2.79607       -0.25338
C          3.90332       -0.44446        1.51450
H          4.65702       -2.42781       -0.15048
H         -0.70828       -1.43224        2.39264
C         -2.49885        0.46779       -0.24602
O          4.71023        0.55563        0.91992
H          3.50622        0.00945        2.42928
H          4.50801       -1.32039        1.78014
C          5.67118        0.14919        0.06993
O          5.91180       -1.01359       -0.19586
N          6.29514        1.21916       -0.46626
H          6.21602        2.12945       -0.01645
O          7.46677        0.99356       -1.13218
H          7.25813        1.06899       -2.07558
H         -3.28543        0.57085       -1.00335
H         -3.00547        0.37860        0.72244
N         -0.98204        2.07781        0.97274
C         -1.70454        1.78500       -0.26714
C         -2.62470        3.02679       -0.28808
C         -2.92538        3.24068        1.19481
O         -1.90679        2.52602        1.90780
H         -1.03082        1.86466       -1.12142
C         -3.86542        2.97329       -1.16694
H         -2.00184        3.86118       -0.64693
H         -2.89556        4.29995        1.48534
H         -3.89287        2.80753        1.48933
O         -4.56358        4.19921       -1.12950
H         -3.57798        2.69899       -2.19841
H         -4.56805        2.20995       -0.80193
H         -3.98157        4.88300       -1.48335
O         -2.87020       -1.81533       -0.95558
S         -4.12961       -2.30716        0.01098
O         -4.95050       -1.13149        0.30733
O         -4.75233       -3.29400       -0.86416
O         -3.47186       -2.87946        1.20916
H          3.54693       -3.63095       -0.80888
H          0.55650        0.54912       -3.67696
H          1.12973       -3.00188       -0.91533
H         -1.80764       -3.08867        0.81980
