62
ZTX_212_solv.log	Energy: -1483142.9014140
C          1.38436        1.20728        0.62173
N          1.48412        1.50391       -0.78656
C          0.89452        0.76245       -1.72299
C          0.24257        1.79854        1.47563
H          2.25881        1.66369        1.09749
N          0.84879        1.17441       -2.97659
H          1.15264        2.11262       -3.21968
H          2.05378        2.29426       -1.07536
N          0.29598       -0.39000       -1.36197
C         -0.80952       -1.58665        0.38035
C         -1.83499       -0.94091       -0.63486
C         -0.98554       -0.83112       -1.90403
O         -0.86211       -2.97255        0.26333
O         -0.98237       -1.18305        1.68910
H         -1.38669       -0.10634       -2.62224
H         -0.89717       -1.81112       -2.39353
O          0.51641        2.01725        2.65134
C          1.45859       -0.29776        0.86497
C          0.60885       -1.11460       -0.12625
N          1.48574       -2.22969       -0.39751
C          2.74280       -1.98612       -0.02740
N          2.80662       -0.83357        0.67244
H          1.12875       -0.51197        1.88983
N          3.76928       -2.76594       -0.27682
C          3.89002       -0.43501        1.52702
H          4.71244       -2.38563       -0.14614
H         -1.90671       -1.41030        1.91579
C         -2.47646        0.40452       -0.23954
O          4.68996        0.58536        0.95661
H          3.46849        0.00280        2.43870
H          4.50631       -1.30235        1.79455
C          5.67835        0.20523        0.12640
O          5.94840       -0.95016       -0.14286
N          6.29322        1.29228       -0.38593
H          6.18568        2.19592        0.07128
O          7.48558        1.09615       -1.02394
H          7.30005        1.18211       -1.97120
H         -2.95722        0.30739        0.74227
H         -3.28314        0.50774       -0.97479
N         -0.98521        2.01847        0.98001
C         -1.70294        1.73083       -0.26050
C         -2.64099        2.95884       -0.27210
C         -2.93990        3.16264        1.21278
O         -1.90575        2.46327        1.91976
H         -1.03288        1.82658       -1.11546
C         -3.87395        2.87702       -1.15028
H         -2.03764        3.80541       -0.63214
H         -2.92584        4.22105        1.50700
H         -3.89872        2.71194        1.50917
O         -4.48233        4.15086       -1.13870
H         -3.57597        2.57943       -2.17314
H         -4.57012        2.11025       -0.76732
H         -5.32110        4.08173       -1.60852
O         -2.86215       -1.88545       -0.91819
S         -4.16611       -2.14255        0.12208
O         -3.61391       -1.94537        1.47772
O         -5.17153       -1.15350       -0.26444
O         -4.48999       -3.52597       -0.20881
H          3.63627       -3.59033       -0.85423
H          0.52712        0.55831       -3.71574
H          1.20167       -3.01629       -0.97299
H         -1.64726       -3.20091       -0.25907
