62
ZTX_150_solv.log	Energy: -1483140.7923358
C          1.00392       -1.97912        0.00145
N          0.53764       -2.39523        1.30050
C         -0.11918       -1.57633        2.11966
C          0.09328       -2.11867       -1.24186
H          1.81970       -2.65660       -0.27102
N         -0.69844       -2.03818        3.21292
H         -0.74684       -3.03777        3.38628
H          0.72643       -3.34622        1.60481
N         -0.22979       -0.27400        1.78943
C         -0.35953        1.24961       -0.06418
C         -1.78524        0.92043        0.52959
C         -1.45969        0.48627        1.96261
O         -0.01608        2.57377        0.09842
O         -0.32541        0.86148       -1.39652
H         -2.25420       -0.12824        2.40298
H         -1.29458        1.37132        2.59236
O          0.67517       -2.29183       -2.30732
C          1.56753       -0.56427        0.06599
C          0.64524        0.40300        0.83164
N          1.60768        1.23308        1.51250
C          2.82753        0.70162        1.50787
N          2.82845       -0.45985        0.81188
H          1.72561       -0.20301       -0.95880
N          3.87233        1.22447        2.10895
C          4.00024       -1.20982        0.47335
H          4.81233        0.95155        1.80110
H          0.44115        1.27641       -1.81832
C         -2.60026       -0.13613       -0.23895
O          4.62055       -0.75207       -0.71813
H          4.70604       -1.18805        1.31249
H          3.71824       -2.24964        0.28245
C          5.66973        0.08432       -0.59975
O          6.07197        0.54447        0.45308
N          6.22952        0.29607       -1.80807
H          5.71920        0.05634       -2.65596
O          7.10940        1.33491       -1.92119
H          7.99375        0.93873       -1.93633
H         -3.59975       -0.04365        0.20117
H         -2.68673        0.16634       -1.28933
N         -1.24627       -2.05249       -1.16513
C         -2.24050       -1.62849       -0.17808
C         -3.40250       -2.53947       -0.63608
C         -3.24462       -2.52537       -2.15329
O         -1.88381       -2.14153       -2.39861
H         -1.94802       -1.95660        0.81933
C         -4.79110       -2.18061       -0.13646
H         -3.15868       -3.54741       -0.26499
H         -3.43003       -3.50846       -2.60793
H         -3.88864       -1.77297       -2.63290
O         -4.83020       -2.06451        1.26994
H         -5.11754       -1.21428       -0.54834
H         -5.50524       -2.94029       -0.50031
H         -4.58413       -2.91837        1.64731
O         -2.57285        2.09477        0.70007
S         -3.24115        3.01246       -0.51243
O         -4.19947        2.17244       -1.23294
O         -2.08368        3.42335       -1.34210
O         -3.83015        4.08892        0.27604
H          3.75946        2.10773        2.59744
H         -1.07999       -1.40224        3.90559
H          1.37813        2.13949        1.90770
H         -0.66761        3.09418       -0.42604
