62
ZTX_365_solv.log	Energy: -1483143.0447873
C          1.53642        0.96508        0.88353
N          1.73347        1.33237       -0.49679
C          1.11017        0.70646       -1.49446
C          0.40366        1.60334        1.71559
H          2.41920        1.31899        1.42696
N          1.17470        1.17502       -2.72672
H          1.60170        2.07804       -2.90956
H          2.45320        2.01633       -0.71784
N          0.36535       -0.37980       -1.21111
C         -0.93391       -1.49032        0.45999
C         -1.84240       -0.74156       -0.60763
C         -0.92143       -0.67145       -1.82805
O         -1.11624       -2.86360        0.39694
O         -1.08961       -0.99817        1.74655
H         -1.21726        0.11451       -2.53335
H         -0.90502       -1.63913       -2.34896
O          0.61768        1.69536        2.91953
C          1.47269       -0.55399        1.02605
C          0.53968       -1.20113       -0.01138
N          1.26838       -2.40955       -0.33141
C          2.56421       -2.28559       -0.03087
N          2.75453       -1.20272        0.74682
H          1.14292       -0.80944        2.04120
N          3.50698       -3.11822       -0.41115
C          3.95754       -0.84763        1.44224
H          4.47941       -2.80454       -0.36246
H         -2.02306       -1.14233        1.98570
C         -2.36108        0.65018       -0.19740
O          4.62782        0.21950        0.79509
H          3.69364       -0.46769        2.43552
H          4.61257       -1.72023        1.55221
C          5.37222       -0.09471       -0.27538
O          5.66613       -1.23402       -0.59812
N          5.73786        0.98978       -0.98674
H          6.48142        0.88963       -1.67471
O          5.54253        2.24877       -0.49135
H          4.77579        2.60604       -0.96524
H         -3.09164        0.87776       -0.98252
H         -2.92337        0.57655        0.74306
N         -0.74678        2.02296        1.16388
C         -1.43698        1.87339       -0.11614
C         -2.22217        3.20748       -0.10228
C         -2.56645        3.37119        1.37700
O         -1.67037        2.50320        2.08476
H         -0.72612        1.92808       -0.94063
C         -3.41482        3.30318       -1.02941
H         -1.50113        3.98687       -0.39024
H         -2.42859        4.40322        1.72899
H         -3.58860        3.03860        1.61014
O         -2.96990        3.04390       -2.34419
H         -4.19933        2.58983       -0.72089
H         -3.84791        4.31581       -0.94179
H         -3.74101        3.01464       -2.92186
O         -2.94282       -1.54402       -1.01903
S         -4.23869       -1.85010       -0.02613
O         -5.09356       -0.66301       -0.05255
O         -4.80067       -3.03757       -0.65787
O         -3.61345       -2.10108        1.29882
H          3.26786       -3.87203       -1.04825
H          0.81538        0.63589       -3.50756
H          0.91655       -3.08775       -1.00071
H         -2.01334       -3.03247        0.73628
