62
ZTX_186_solv.log	Energy: -1483140.5216533
C          1.10616       -1.92489        0.12822
N          0.63977       -2.29992        1.43982
C         -0.05069       -1.46682        2.21555
C          0.21182       -2.13802       -1.11417
H          1.94345       -2.58987       -0.10780
N         -0.62638       -1.89524        3.32389
H         -0.64270       -2.88630        3.54558
H          0.85649       -3.22951        1.78822
N         -0.19885       -0.18601        1.82406
C         -0.35694        1.25478       -0.09199
C         -1.77650        0.90989        0.50821
C         -1.44865        0.54802        1.96029
O         -0.05280        2.59390        0.01132
O         -0.30230        0.80689       -1.40500
H         -2.22853       -0.06826        2.42371
H         -1.31022        1.46325        2.55237
O          0.80820       -2.33198       -2.16785
C          1.62549       -0.49123        0.13212
C          0.66559        0.47721        0.84751
N          1.59589        1.36392        1.50354
C          2.83108        0.87000        1.53334
N          2.87765       -0.31375        0.87704
H          1.77771       -0.17136       -0.90722
N          3.85304        1.44340        2.12738
C          4.08439       -1.00537        0.53709
H          4.80653        1.18208        1.85163
H          0.44335        1.23901       -1.84654
C         -2.55498       -0.20367       -0.21637
O          4.68667       -0.50421       -0.64751
H          4.78568       -0.96048        1.37832
H          3.84956       -2.05350        0.33038
C          5.71223        0.34950       -0.51401
O          6.12606        0.77144        0.55531
N          6.22305        0.73618       -1.69956
H          7.11775        1.22225       -1.69444
O          5.92959        0.04614       -2.84271
H          5.28499        0.58661       -3.32444
H         -3.55709       -0.12749        0.22138
H         -2.64975        0.05122       -1.27866
N         -1.12978       -2.11044       -1.05104
C         -2.14950       -1.68009       -0.09286
C         -3.27908       -2.64743       -0.52275
C         -3.08161       -2.73540       -2.03526
O         -1.75213       -2.25957       -2.28472
H         -1.85761       -1.95844        0.91962
C         -4.68730       -2.27951       -0.10682
H         -3.03265       -3.62053       -0.07253
H         -3.17842       -3.76350       -2.41188
H         -3.76770       -2.07705       -2.58789
O         -4.71113       -2.14459        1.29840
H         -5.00456       -1.34750       -0.60745
H         -5.37258       -3.07650       -0.44741
H         -5.58647       -1.83266        1.55490
O         -2.60020        2.06622        0.62187
S         -3.28843        2.90634       -0.63494
O         -4.21623        2.00476       -1.32061
O         -3.91491        3.99906        0.10044
O         -2.13851        3.31367       -1.47673
H          3.70959        2.33948        2.58342
H         -1.03185       -1.23971        3.98374
H          1.32839        2.26435        1.88849
H         -0.71672        3.07024       -0.53878
