62
ZTX_318_solv.log	Energy: -1483138.4909448
C         -1.63209        1.20618       -0.62148
N         -1.62067        1.16810        0.82098
C         -0.79910        0.36665        1.49906
C         -0.69353        2.16322       -1.38895
H         -2.61250        1.59917       -0.91092
N         -0.69209        0.45795        2.81126
H         -1.13888        1.22118        3.31058
H         -2.34936        1.66855        1.32385
N         -0.03518       -0.49746        0.80564
C          1.02383       -1.02090       -1.27073
C          2.04965       -0.50912       -0.17532
C          1.33927       -0.83629        1.15245
O          1.33241       -2.28800       -1.72632
O          0.91890       -0.17590       -2.36015
H          1.69893       -0.22117        1.98572
H          1.41507       -1.89457        1.42959
O         -1.11663        2.57009       -2.46580
C         -1.50097       -0.20480       -1.19661
C         -0.37059       -1.00149       -0.52475
N         -0.96460       -2.31818       -0.42628
C         -2.29810       -2.24845       -0.48903
N         -2.67659       -1.03538       -0.93522
H         -1.32926       -0.14127       -2.27878
N         -3.11829       -3.23109       -0.19151
C         -3.99264       -0.64974       -1.35383
H         -4.10114       -3.00472       -0.01766
H          1.77552       -0.14783       -2.80969
C          2.40712        0.98945       -0.25644
O         -4.62672        0.15766       -0.37750
H         -3.91162       -0.01893       -2.24617
H         -4.59560       -1.53499       -1.59037
C         -5.18085       -0.47587        0.66633
O         -5.34942       -1.68301        0.72786
N         -5.50555        0.36520        1.66730
H         -6.12296        0.03033        2.40389
O         -5.46304        1.71910        1.48527
H         -4.64673        2.02198        1.91225
H          3.24982        1.06619        0.44117
H          2.80443        1.20227       -1.25903
N          0.51401        2.51928       -0.92013
C          1.41751        2.09206        0.14610
C          2.10542        3.45289        0.41009
C          2.19488        4.05197       -0.99136
O          1.23782        3.33371       -1.78337
H          0.85329        1.84287        1.04382
C          3.41859        3.41721        1.16165
H          1.38986        4.04111        1.00378
H          1.94992        5.12323       -1.00758
H          3.18062        3.89518       -1.45362
O          3.19910        2.75914        2.39141
H          4.19234        2.90566        0.56257
H          3.76460        4.45518        1.31493
H          4.04800        2.66438        2.83790
O          3.30530       -1.13826       -0.39834
S          3.84520       -2.45953        0.43937
O          2.78901       -3.47998        0.21987
O          5.10179       -2.73209       -0.24507
O          3.96022       -2.03543        1.83690
H         -2.73548       -4.08714        0.19886
H         -0.16901       -0.23357        3.33880
H         -0.47604       -3.09533        0.01088
H          1.79531       -2.81840       -1.04003
