62
ZTX_379_solv.log	Energy: -1483139.8875111
C          1.42701        1.27950        0.58531
N          1.54152        1.51836       -0.83241
C          0.92090        0.76163       -1.73519
C          0.29567        1.93909        1.40680
H          2.31178        1.72808        1.04988
N          0.89170        1.11389       -3.00733
H          1.24546        2.02083       -3.29700
H          2.14379        2.27154       -1.15224
N          0.27307       -0.34365       -1.31908
C         -0.89084       -1.38705        0.49899
C         -1.88358       -0.78997       -0.57557
C         -1.02006       -0.76043       -1.83954
O         -0.95978       -2.76060        0.56941
O         -1.13927       -0.78710        1.72667
H         -1.39741       -0.05686       -2.59087
H         -0.96682       -1.76560       -2.28049
O          0.56953        2.19014        2.57672
C          1.45759       -0.21868        0.88218
C          0.55450       -1.03347       -0.06107
N          1.36868       -2.20409       -0.29383
C          2.64441       -1.99771        0.03506
N          2.77644       -0.81754        0.68019
H          1.15287       -0.37394        1.92584
N          3.63120       -2.82993       -0.20295
C          3.89034       -0.44475        1.50781
H          4.59320       -2.48963       -0.09723
H         -0.72576       -1.32469        2.41773
C         -2.48965        0.58467       -0.23594
O          4.74185        0.49996        0.88539
H          3.50256        0.05570        2.40220
H          4.45789       -1.33395        1.80935
C          5.73685        0.02354        0.11426
O          5.92426       -1.15589       -0.12172
N          6.51501        1.03777       -0.31408
H          6.18283        1.99864       -0.26005
O          7.40636        0.77241       -1.31391
H          8.27529        0.70604       -0.88941
H         -3.31545        0.69997       -0.94579
H         -2.94976        0.53538        0.75826
N         -0.91765        2.19272        0.89238
C         -1.66016        1.87553       -0.32916
C         -2.52556        3.15527       -0.39230
C         -2.85741        3.38170        1.07848
O         -1.81771        2.72090        1.81371
H         -0.99347        1.90208       -1.19235
C         -3.69557        3.21516       -1.37177
H         -1.83880        3.95379       -0.71207
H         -2.86967        4.44638        1.35033
H         -3.80990        2.91718        1.37438
O         -4.79821        2.38474       -1.08516
H         -4.01364        4.26955       -1.44695
H         -3.32741        2.91997       -2.36607
H         -5.24236        2.71415       -0.29531
O         -2.92896       -1.70376       -0.89536
S         -4.18175       -2.15490        0.09706
O         -4.96184       -0.95615        0.40904
O         -4.85111       -3.12520       -0.76236
O         -3.51873       -2.74604        1.28370
H          3.45169       -3.67550       -0.73518
H          0.54291        0.47594       -3.71516
H          1.05124       -2.98473       -0.86030
H         -1.87062       -2.97585        0.87620
