62
ZTX_433_solv.log	Energy: -1483135.9973979
C         -1.23467        1.56919        0.82587
N         -0.53215        1.49889        2.08417
C          0.39750        0.57714        2.32858
C         -0.65556        2.39507       -0.34489
H         -2.17088        2.10489        1.01682
N          1.15484        0.64834        3.40780
H          1.11153        1.46367        4.01180
H         -0.77531        2.15786        2.81855
N          0.59301       -0.40032        1.42364
C          0.47210       -0.98550       -0.89455
C          1.94957       -0.65450       -0.42920
C          1.90790       -0.93273        1.08531
O          0.35286       -2.26985       -1.38954
O         -0.01889       -0.10309       -1.83827
H          2.69964       -0.40400        1.62837
H          1.96159       -2.00096        1.32567
O         -1.47794        2.87121       -1.12000
C         -1.58470        0.17045        0.32795
C         -0.39309       -0.79645        0.42062
N         -1.05385       -2.02020        0.80673
C         -2.28504       -1.80647        1.25987
N         -2.61322       -0.49581        1.14027
H         -1.92828        0.23212       -0.71260
N         -3.06373       -2.74307        1.74767
C         -3.96670       -0.04293        1.10900
H         -4.01194       -2.54625        2.04896
H          0.52088       -0.17747       -2.63808
C          2.43117        0.78241       -0.72381
O         -4.52137       -0.40912       -0.14929
H         -4.54103       -0.49600        1.92808
H         -3.99321        1.04643        1.23555
C         -5.75624        0.05328       -0.40469
O         -6.40985        0.71739        0.37047
N         -6.12622       -0.29436       -1.66550
H         -5.65767       -1.08024       -2.11304
O         -7.46191       -0.19303       -1.95612
H         -7.54973        0.57462       -2.54013
H          3.50158        0.71923       -0.49380
H          2.35006        0.95830       -1.80597
N          0.66538        2.57112       -0.51387
C          1.90067        2.01112        0.03112
C          2.80026        3.25693       -0.14298
C          2.30818        3.82936       -1.46882
O          0.99470        3.28411       -1.66222
H          1.80040        1.83957        1.10267
C          4.30036        3.03472       -0.05982
H          2.51446        3.94667        0.66665
H          2.24678        4.92652       -1.45975
H          2.92524        3.50463       -2.32002
O          4.66819        2.36225        1.12533
H          4.65149        2.41872       -0.90055
H          4.80806        4.01161       -0.14612
H          4.40365        2.91085        1.87408
O          2.85534       -1.44066       -1.19424
S          3.54878       -2.84558       -0.66012
O          2.38724       -3.71286       -0.33722
O          4.30063       -3.25466       -1.83859
O          4.34959       -2.48746        0.51249
H         -2.71975       -3.69561        1.82176
H          1.76085       -0.12221        3.66971
H         -0.58350       -2.92082        0.83563
H          1.02727       -2.87537       -1.00837
