62
ZTX_307_solv.log	Energy: -1483142.4357141
C          1.07056       -1.88136        0.29970
N          0.63138       -2.14269        1.64855
C          0.01011       -1.22765        2.39011
C          0.13442       -2.14605       -0.90082
H          1.87488       -2.59342        0.08841
N         -0.53170       -1.55461        3.54876
H         -0.58178       -2.52739        3.83654
H          0.83005       -3.05096        2.05843
N         -0.10465        0.02958        1.91875
C         -0.28263        1.32408       -0.08768
C         -1.69908        1.07585        0.58803
C         -1.32107        0.82130        2.04938
O          0.05388        2.66992       -0.06153
O         -0.18204        0.78348       -1.35880
H         -2.09680        0.27476        2.59844
H         -1.12123        1.77509        2.55718
O          0.69338       -2.43844       -1.95220
C          1.63792       -0.47119        0.18228
C          0.73993        0.58196        0.85885
N          1.72547        1.48138        1.40610
C          2.94317        0.94486        1.43036
N          2.92035       -0.28895        0.87418
H          1.75792       -0.22054       -0.87944
N          4.00629        1.52620        1.93863
C          4.08203       -1.06838        0.56996
H          4.93615        1.21227        1.63921
H         -0.86053        1.22140       -1.90294
C         -2.54460       -0.06618       -0.01049
O          4.64924       -0.73605       -0.68841
H          4.82138       -0.95878        1.37183
H          3.79841       -2.12255        0.49745
C          5.69353        0.10489       -0.69847
O          6.15647        0.64424        0.29502
N          6.16483        0.33213       -1.94069
H          7.06909        0.79201       -2.02645
O          5.81820       -0.49059       -2.97633
H          5.16848       -0.00065       -3.50300
H         -3.51558        0.06590        0.48253
H         -2.71155        0.12311       -1.07937
N         -1.20113       -2.04173       -0.81176
C         -2.17622       -1.54768        0.15991
C         -3.35017       -2.48702       -0.19820
C         -3.19615       -2.65264       -1.71155
O         -1.86253       -2.22302       -2.01882
H         -1.85672       -1.79313        1.17393
C         -4.73652       -2.05822        0.23997
H         -3.13632       -3.45038        0.28791
H         -3.32770       -3.69362       -2.03823
H         -3.88150       -2.00239       -2.27464
O         -5.61328       -3.12889       -0.04034
H         -4.72310       -1.81809        1.31967
H         -5.04795       -1.14838       -0.30235
H         -6.51339       -2.82183        0.11558
O         -2.48583        2.26154        0.61562
S         -3.17456        2.90969       -0.75082
O         -2.10678        2.77835       -1.77587
O         -4.37010        2.12073       -1.04805
O         -3.42347        4.27806       -0.31482
H          3.91204        2.46125        2.32377
H         -0.88087       -0.83959        4.17826
H          1.50758        2.42168        1.72046
H         -0.55228        3.11619       -0.67973
