62
ZTX_62_solv.log	Energy: -1483142.8920515
C          0.95485       -1.98165        0.14407
N          0.51337       -2.31764        1.47496
C         -0.08571       -1.43429        2.27122
C         -0.00145       -2.12755       -1.06023
H          1.72885       -2.70831       -0.12366
N         -0.64903       -1.81783        3.40181
H         -0.72707       -2.80489        3.62828
H          0.67578       -3.25914        1.82071
N         -0.15579       -0.14866        1.87709
C         -0.26282        1.30177       -0.02108
C         -1.69056        1.07215        0.63890
C         -1.32444        0.69638        2.07700
O          0.13564        2.62499        0.09666
O         -0.18767        0.84630       -1.32720
H         -2.12822        0.15768        2.59243
H         -1.06934        1.59938        2.64921
O          0.53547       -2.37456       -2.13436
C          1.57704       -0.59015        0.11750
C          0.72022        0.44612        0.86838
N          1.73660        1.26115        1.48740
C          2.93552        0.68373        1.45927
N          2.86739       -0.50258        0.81257
H          1.70265       -0.27470       -0.92609
N          4.02115        1.18995        1.99941
C          3.99471       -1.31432        0.46351
H          4.93674        0.86959        1.66605
H         -0.84755        1.35099       -1.83609
C         -2.58482        0.00967       -0.03304
O          4.57188       -0.94913       -0.77933
H          4.74010       -1.27490        1.26711
H          3.66709       -2.35133        0.34423
C          5.62410       -0.10732       -0.76033
O          6.10680        0.37274        0.24888
N          6.03131        0.14733       -2.01946
H          5.73919       -0.45483       -2.78675
O          7.22983        0.78029       -2.18284
H          7.02076        1.70280       -2.39485
H         -3.55136        0.15586        0.46478
H         -2.73824        0.27050       -1.08897
N         -1.33239       -1.97828       -0.94993
C         -2.28322       -1.49498        0.05267
C         -3.49807       -2.36198       -0.35108
C         -3.35545       -2.45077       -1.87126
O         -2.00649       -2.06081       -2.16155
H         -1.97667       -1.80911        1.05142
C         -4.87463       -1.90725        0.11099
H         -3.31781       -3.35895        0.08057
H         -3.53156       -3.46594       -2.25367
H         -4.01475       -1.74314       -2.39488
O         -5.86775       -2.83116       -0.27864
H         -4.86733       -1.75390        1.20562
H         -5.14508       -0.95002       -0.35846
H         -5.67434       -3.67342        0.15125
O         -2.42221        2.28711        0.74902
S         -3.07416        3.05645       -0.57142
O         -4.30412        2.34590       -0.92057
O         -3.25925        4.40383       -0.04705
O         -2.01031        2.94307       -1.60312
H          3.96194        2.09746        2.45175
H         -0.98317       -1.13443        4.07330
H          1.55753        2.19287        1.84834
H         -0.44598        3.13677       -0.49383
