62
ZTX_411_solv.log	Energy: -1483140.5765792
C          1.58812        0.78699        0.88172
N          1.79238        1.18924       -0.48804
C          1.13632        0.61707       -1.49601
C          0.50759        1.47002        1.74723
H          2.50118        1.07533        1.41264
N          1.23429        1.09144       -2.72382
H          1.72241        1.96456       -2.89881
H          2.60209        1.77193       -0.69032
N          0.31802       -0.41947       -1.22728
C         -1.04396       -1.46003        0.44871
C         -1.90560       -0.62899       -0.58517
C         -1.00089       -0.58081       -1.81993
O         -1.32172       -2.80763        0.40456
O         -1.23610       -0.92633        1.71680
H         -1.24567        0.25341       -2.48824
H         -1.07546       -1.52495       -2.37751
O          0.72822        1.49555        2.95339
C          1.45192       -0.72839        0.97762
C          0.45140       -1.28303       -0.05268
N          1.07706       -2.53530       -0.40962
C          2.37318       -2.53864       -0.09686
N          2.68371       -1.45249        0.63983
H          1.14297       -0.99519        1.99682
N          3.21876       -3.48012       -0.45035
C          3.94126       -1.29225        1.32685
H          4.19888       -3.43996       -0.19107
H         -0.94654       -1.57715        2.37196
C         -2.33045        0.77657       -0.12342
O          4.98377       -0.97312        0.42665
H          3.82811       -0.52465        2.10131
H          4.24571       -2.23461        1.79975
C          5.16512        0.32235        0.09172
O          4.58216        1.25698        0.60029
N          6.12544        0.41429       -0.85387
H          6.38195       -0.40397       -1.40261
O          6.26203        1.61563       -1.49054
H          7.05540        2.02980       -1.11862
H         -3.07717        1.06691       -0.87128
H         -2.85516        0.70284        0.83627
N         -0.59619        2.02046        1.21397
C         -1.31914        1.93091       -0.05457
C         -2.00017        3.31758       -0.01542
C         -2.33340        3.47171        1.46606
O         -1.46514        2.56159        2.15669
H         -0.61854        1.93600       -0.89001
C         -3.17207        3.52945       -0.95799
H         -1.21670        4.04540       -0.27885
H         -2.15717        4.49156        1.83560
H         -3.36755        3.17342        1.69479
O         -2.83302        3.22672       -2.29449
H         -4.01572        2.87858       -0.68506
H         -3.52546        4.57070       -0.85567
H         -2.11561        3.81525       -2.56073
O         -3.05103       -1.35434       -1.02088
S         -4.39926       -1.69449       -0.11137
O         -5.01856       -0.42209        0.26372
O         -5.15616       -2.49597       -1.06627
O         -3.87791       -2.45510        1.04909
H          2.89827       -4.25780       -1.01887
H          0.85017        0.57731       -3.50996
H          0.64003       -3.21244       -1.02730
H         -2.26429       -2.90498        0.67258
