62
ZTX_370_solv.log	Energy: -1483137.5334219
C         -1.06876        1.78110        1.06079
N         -0.45596        1.44365        2.32255
C          0.34099        0.38588        2.47524
C         -0.28842        2.67146        0.06387
H         -1.92270        2.42426        1.29286
N          1.07905        0.25267        3.56149
H          1.13471        1.00710        4.23905
H         -0.61279        2.05833        3.11604
N          0.41378       -0.51087        1.47645
C          0.23682       -1.06062       -0.83880
C          1.74524       -0.99498       -0.36044
C          1.61032       -1.27342        1.14468
O         -0.07662       -2.36493       -1.15604
O         -0.05041       -0.27910       -1.94947
H          2.47230       -0.91656        1.71869
H          1.46795       -2.34449        1.34116
O         -0.79161        3.71407       -0.29393
C         -1.58389        0.52767        0.34609
C         -0.61448       -0.67723        0.45647
N         -1.51505       -1.74978        0.80898
C         -2.75604       -1.33212        1.03898
N         -2.82478        0.01362        0.93900
H         -1.76836        0.75568       -0.71418
N         -3.76233       -2.12094        1.34268
C         -4.04412        0.76503        0.96989
H         -4.72172       -1.78702        1.19911
H          0.20856        0.64268       -1.78833
C          2.49524        0.31276       -0.65723
O         -4.67009        0.84520       -0.30086
H         -4.72535        0.32860        1.70984
H         -3.82920        1.79628        1.26362
C         -5.69576        0.00715       -0.54993
O         -6.05574       -0.88506        0.19617
N         -6.28237        0.33232       -1.71865
H         -5.80843        0.94663       -2.37798
O         -7.14984       -0.57005       -2.26423
H         -8.03932       -0.22284       -2.09739
H          3.52820        0.11073       -0.34622
H          2.51167        0.45767       -1.74799
N          0.80446        2.12293       -0.58627
C          2.03716        1.59734        0.02703
C          2.97828        2.80472       -0.16451
C          2.49729        3.40796       -1.48193
O          1.19000        2.85221       -1.70794
H          1.89662        1.46136        1.10093
C          4.46381        2.50713       -0.12029
H          2.75414        3.50769        0.65201
H          2.42156        4.50329       -1.44550
H          3.12513        3.11020       -2.33446
O          5.14314        3.74271       -0.18867
H          4.70207        1.96495        0.81351
H          4.74715        1.85684       -0.96650
H          6.08609        3.55881       -0.26629
O          2.40097       -2.00813       -1.10621
S          3.63055       -2.96729       -0.47126
O          4.28201       -3.40937       -1.69947
O          4.41992       -2.06389        0.37590
O          2.92331       -4.01997        0.26696
H         -3.59868       -3.12295        1.37406
H          1.55822       -0.61853        3.76400
H         -1.26734       -2.72137        0.64480
H          0.75085       -2.77446       -1.46543
