62
ZTX_144_solv.log	Energy: -1483138.8416222
C         -1.06830        1.76519        0.71577
N         -0.49239        1.52838        2.01603
C          0.19840        0.42678        2.30448
C         -0.25634        2.48304       -0.38728
H         -1.88293        2.48257        0.86072
N          0.86223        0.32899        3.44185
H          0.94481        1.13312        4.05703
H         -0.64313        2.21776        2.74724
N          0.25279       -0.56801        1.39652
C          0.24933       -1.01245       -0.94972
C          1.71054       -0.96547       -0.36765
C          1.47713       -1.30869        1.11269
O         -0.04799       -2.28518       -1.39705
O          0.12879       -0.06554       -1.95532
H          2.29695       -0.98074        1.75976
H          1.32334       -2.38715        1.24841
O         -0.91858        3.10177       -1.21352
C         -1.65511        0.47738        0.14853
C         -0.69269       -0.71550        0.28774
N         -1.61588       -1.79310        0.54241
C         -2.81670       -1.35170        0.90920
N         -2.85084        0.00145        0.85813
H         -1.90189        0.63850       -0.90955
N         -3.81521       -2.12128        1.27862
C         -4.03037        0.79535        1.02619
H         -4.77230       -1.75265        1.24372
H         -0.65552       -0.27256       -2.48370
C          2.48693        0.34703       -0.58425
O         -4.78201        0.92450       -0.17054
H         -4.64770        0.37358        1.82836
H         -3.73957        1.81166        1.30783
C         -5.85829        0.12946       -0.32632
O         -6.16811       -0.77175        0.43184
N         -6.55674        0.50823       -1.41421
H         -6.14048        1.13118       -2.10346
O         -7.51434       -0.34461       -1.88270
H         -8.36450        0.02233       -1.59608
H          3.50795        0.07238       -0.29241
H          2.50473        0.54974       -1.66363
N          1.08438        2.43451       -0.44234
C          2.15189        1.64100        0.17089
C          3.28352        2.68788        0.09456
C          2.99430        3.38890       -1.23245
O          1.62365        3.09685       -1.53905
H          1.93615        1.47038        1.22684
C          4.70335        2.17754        0.23741
H          3.10659        3.39752        0.91647
H          3.12756        4.47802       -1.17463
H          3.60469        2.98864       -2.05569
O          5.55046        3.30485        0.30918
H          4.77896        1.55454        1.14823
H          4.97383        1.54297       -0.62423
H          6.46122        2.99120        0.27721
O          2.41872       -1.95025       -1.10799
S          3.59488       -2.93963       -0.42675
O          2.83725       -4.03582        0.18736
O          4.35586       -3.30824       -1.61608
O          4.30213       -2.08404        0.53579
H         -3.67984       -3.12783        1.28010
H          1.27865       -0.55109        3.72786
H         -1.36032       -2.77126        0.45009
H          0.79406       -2.66770       -1.70156
