62
ZTX_125_solv.log	Energy: -1483139.6048746
C         -1.42600        1.52807        0.64962
N         -0.87674        1.79192        1.95736
C         -0.02670        0.96230        2.55999
C         -0.68489        2.00516       -0.61839
H         -2.35619        2.10176        0.57462
N          0.59747        1.32608        3.66513
H          0.53621        2.28280        4.00004
H         -1.16657        2.63426        2.44602
N          0.22767       -0.23790        1.99919
C          0.35358       -1.43334       -0.06603
C          1.77571       -0.94023        0.41791
C          1.56670       -0.81717        1.92982
O          0.30764       -2.82369       -0.01902
O         -0.01332       -0.96245       -1.31020
H          2.30839       -0.16530        2.40665
H          1.59756       -1.80801        2.40397
O         -1.38610        2.23470       -1.59661
C         -1.77269        0.05136        0.50731
C         -0.65255       -0.87334        1.01501
N         -1.42024       -1.93344        1.62127
C         -2.68870       -1.58992        1.82184
N         -2.92629       -0.35362        1.32503
H         -1.96809       -0.17619       -0.54939
N         -3.57232       -2.35586        2.41923
C         -4.24731        0.15332        1.08425
H         -4.54446       -2.08106        2.50796
H          0.69569       -1.25067       -1.92012
C          2.33078        0.35600       -0.20366
O         -4.82297       -0.41175       -0.07845
H         -4.89820       -0.10692        1.92537
H         -4.20810        1.24449        1.00051
C         -4.79334        0.32221       -1.21591
O         -4.40028        1.46464       -1.29154
N         -5.23246       -0.43650       -2.24754
H         -5.77553       -1.27662       -2.05805
O         -5.55890        0.21734       -3.40414
H         -4.83354        0.04346       -4.02252
H          3.37689        0.34467        0.12287
H          2.33743        0.26828       -1.29745
N          0.64907        2.16700       -0.64817
C          1.79078        1.74365        0.16258
C          2.77067        2.88147       -0.21491
C          2.42178        3.15057       -1.67821
O          1.13804        2.54979       -1.89203
H          1.56873        1.85358        1.22381
C          4.24207        2.61985        0.02649
H          2.47348        3.75106        0.38969
H          2.36518        4.22465       -1.90476
H          3.12236        2.66637       -2.37406
O          4.41634        2.30311        1.39127
H          4.59849        1.80252       -0.62537
H          4.80958        3.52548       -0.25371
H          5.33649        2.04817        1.52397
O          2.71649       -1.99238        0.22650
S          3.40807       -2.31526       -1.27828
O          4.59278       -1.46090       -1.35146
O          3.67325       -3.74304       -1.13997
O          2.35747       -1.97593       -2.25948
H         -3.28540       -3.25195        2.80119
H          1.13807        0.65542        4.20169
H         -1.01141       -2.82570        1.88140
H          1.20770       -3.14927        0.14259
