62
ZTX_156_solv.log	Energy: -1483141.6121267
C          0.97515       -1.97059        0.16927
N          0.52245       -2.30720        1.49675
C         -0.08628       -1.42967        2.29280
C          0.03946       -2.12980       -1.04912
H          1.75741       -2.69247       -0.08716
N         -0.66070       -1.82389        3.41431
H         -0.74231       -2.81293        3.63082
H          0.67889       -3.25103        1.83907
N         -0.15382       -0.13936        1.91082
C         -0.24022        1.35455        0.04975
C         -1.67713        1.07181        0.64783
C         -1.34218        0.68794        2.09256
O          0.09480        2.68801        0.26926
O         -0.10582        1.01690       -1.28093
H         -2.14854        0.12812        2.58078
H         -1.11703        1.58581        2.68503
O          0.59299       -2.38524       -2.11306
C          1.58574       -0.57485        0.14509
C          0.73650        0.45804        0.91189
N          1.75851        1.25501        1.54485
C          2.96176        0.69075        1.47706
N          2.88721       -0.48981        0.82175
H          1.69663       -0.25037       -0.89770
N          4.05707        1.20277        1.99130
C          4.01241       -1.29279        0.44929
H          4.96584        0.89489        1.62794
H         -0.79375        1.52780       -1.75290
C         -2.54435        0.00809       -0.05560
O          4.56533       -0.91572       -0.80149
H          4.77150       -1.25252        1.24000
H          3.68920       -2.33128        0.33049
C          5.63575       -0.09822       -0.79615
O          6.11440        0.40834        0.20205
N          6.11821        0.03476       -2.04775
H          5.55074       -0.24097       -2.84696
O          7.01894        1.03539       -2.27637
H          7.88650        0.60770       -2.33880
H         -3.52641        0.15656        0.40942
H         -2.65569        0.26673       -1.11640
N         -1.29073       -1.97120       -0.96087
C         -2.24809       -1.49516        0.03661
C         -3.45898       -2.36099       -0.37672
C         -3.31177       -2.43666       -1.89667
O         -1.95379       -2.06937       -2.17724
H         -1.94812       -1.81283        1.03578
C         -4.82631       -1.90644        0.09416
H         -3.28300       -3.36080        0.04717
H         -3.50321       -3.44432       -2.29079
H         -3.95694       -1.71157       -2.41424
O         -5.74331       -2.92602       -0.24209
H         -4.79883       -1.73018        1.18581
H         -5.10542       -0.95542       -0.39247
H         -6.63029       -2.60031       -0.05260
O         -2.40027        2.29644        0.71200
S         -3.16498        2.96192       -0.63840
O         -4.48969        2.34483       -0.67934
O         -3.14303        4.37476       -0.27512
O         -2.29681        2.60480       -1.77868
H          4.00090        2.10491        2.45456
H         -1.00171       -1.14658        4.08851
H          1.58744        2.20728        1.85343
H         -0.70012        3.15439        0.57340
