62
ZTX_502_solv.log	Energy: -1483140.8594291
C          1.52662        1.00560        0.79930
N          1.71768        1.32733       -0.59354
C          1.12793        0.63843       -1.57029
C          0.36879        1.63109        1.60566
H          2.39340        1.41104        1.33170
N          1.18807        1.05927       -2.81980
H          1.58616        1.96875       -3.03395
H          2.41838        2.02303       -0.83838
N          0.42149       -0.46288       -1.24974
C         -0.84751       -1.55731        0.45408
C         -1.77637       -0.88426       -0.64768
C         -0.84822       -0.82703       -1.86320
O         -0.97720       -2.93766        0.44138
O         -1.03184       -1.02400        1.72033
H         -1.16518       -0.08388       -2.60454
H         -0.79066       -1.81435       -2.34260
O          0.58183        1.78245        2.80429
C          1.51633       -0.50881        0.99990
C          0.61817       -1.23098       -0.01885
N          1.39710       -2.42109       -0.28832
C          2.68428       -2.23451        0.01843
N          2.82373       -1.11793        0.75815
H          1.18692       -0.73806        2.02143
N          3.66518       -3.04022       -0.32183
C          3.99811       -0.70057        1.46676
H          4.62142       -2.68107       -0.27877
H         -1.95846       -1.20146        1.96313
C         -2.35584        0.50028       -0.29382
O          4.62917        0.38920        0.81865
H          3.70480       -0.32276        2.45244
H          4.68991       -1.54132        1.59511
C          5.38077        0.10072       -0.25370
O          5.70736       -1.02808       -0.58058
N          5.71095        1.19904       -0.96264
H          6.46000        1.12298       -1.64776
O          5.49233        2.44851       -0.45166
H          4.71024        2.79238       -0.90995
H         -3.08786        0.66948       -1.09307
H         -2.93011        0.43213        0.63987
N         -0.80531        1.96585        1.04736
C         -1.48618        1.76594       -0.23200
C         -2.33526        3.05723       -0.24142
C         -2.70580        3.20646        1.23349
O         -1.74376        2.43214        1.96099
H         -0.77316        1.83654       -1.05533
C         -3.51959        3.11131       -1.19901
H         -1.65473        3.87447       -0.52232
H         -2.66500        4.24916        1.57810
H         -3.69913        2.78686        1.45511
O         -4.06317        4.41185       -1.27623
H         -3.17867        2.84383       -2.21100
H         -4.29385        2.38232       -0.90399
H         -4.54184        4.58762       -0.45720
O         -2.84145       -1.74377       -1.03558
S         -4.13065       -2.06881       -0.03965
O         -3.50374       -2.25598        1.29514
O         -5.02909       -0.91607       -0.10433
O         -4.64375       -3.29446       -0.63849
H          3.46661       -3.82828       -0.93061
H          0.85970        0.47589       -3.58232
H          1.07900       -3.13681       -0.93525
H         -1.87082       -3.12758        0.77986
