62
ZTX_85_solv.log	Energy: -1483140.7622279
C          1.00776       -1.97588        0.00541
N          0.54056       -2.39201        1.30412
C         -0.11788       -1.57346        2.12233
C          0.09876       -2.11689       -1.23897
H          1.82444       -2.65265       -0.26618
N         -0.69754       -2.03550        3.21529
H         -0.74481       -3.03507        3.38911
H          0.73019       -3.34263        1.60906
N         -0.22975       -0.27131        1.79153
C         -0.35962        1.25073       -0.06337
C         -1.78563        0.91969        0.52870
C         -1.46127        0.48693        1.96243
O         -0.01846        2.57555        0.09885
O         -0.32318        0.86186       -1.39544
H         -2.25529       -0.12870        2.40210
H         -1.29863        1.37267        2.59184
O          0.68217       -2.28886       -2.30377
C          1.56966       -0.56039        0.07022
C          0.64532        0.40624        0.83421
N          1.60614        1.23821        1.51534
C          2.82656        0.70801        1.51250
N          2.82938       -0.45404        0.81781
H          1.72880       -0.19944       -0.95452
N          3.87030        1.23294        2.11393
C          4.00170       -1.20648        0.48511
H          4.81093        0.96002        1.80889
H          0.44304        1.27805       -1.81657
C         -2.59828       -0.13846       -0.24024
O          4.62084       -0.76270       -0.71146
H          4.70790       -1.17656        1.32363
H          3.72099       -2.24845        0.30482
C          5.64788        0.10366       -0.60465
O          6.06747        0.55188        0.44656
N          6.10832        0.42221       -1.83040
H          5.87298       -0.15638       -2.63449
O          7.29284        1.09637       -1.90840
H          7.06520        2.01924       -2.09876
H         -3.59848       -0.04690        0.19846
H         -2.68374        0.16319       -1.29095
N         -1.24098       -2.05379       -1.16357
C         -2.23683       -1.63033       -0.17787
C         -3.39709       -2.54320       -0.63647
C         -3.23756       -2.53012       -2.15353
O         -1.87710       -2.14431       -2.39769
H         -1.94493       -1.95735        0.82007
C         -4.78673       -2.18592       -0.13865
H         -3.15228       -3.55051       -0.26433
H         -3.42091       -3.51390       -2.60751
H         -3.88223       -1.77915       -2.63450
O         -4.82757       -2.06907        1.26762
H         -5.11397       -1.22025       -0.55145
H         -5.49944       -2.94676       -0.50289
H         -4.58064       -2.92235        1.64575
O         -2.57520        2.09298        0.69739
S         -3.24331        3.00889       -0.51658
O         -3.83533        4.08472        0.27048
O         -4.19904        2.16691       -1.23819
O         -2.08526        3.42140       -1.34468
H          3.75613        2.11614        2.60220
H         -1.08038       -1.39967        3.90735
H          1.37522        2.14482        1.90928
H         -0.67020        3.09460       -0.42673
