62
ZTX_414_solv.log	Energy: -1483139.6941441
C          1.53056        1.34235        0.31734
N          1.62836        1.39750       -1.12155
C          0.89480        0.62271       -1.92087
C          0.48274        2.23052        1.02880
H          2.46791        1.75070        0.70784
N          0.82457        0.86460       -3.21673
H          1.24414        1.70409       -3.60551
H          2.26202        2.07309       -1.53945
N          0.18314       -0.37678       -1.36960
C         -0.95077       -1.34419        0.51060
C         -1.96742       -0.80468       -0.58709
C         -1.11165       -0.82590       -1.85666
O         -1.00191       -2.71538        0.59201
O         -1.15829       -0.83371        1.78692
H         -1.49856       -0.15425       -2.63270
H         -1.05785       -1.84857       -2.25591
O          0.86963        3.03166        1.85243
C          1.41249       -0.10813        0.80228
C          0.49066       -0.98336       -0.08046
N          1.30062       -2.16789       -0.25750
C          2.55633       -2.00342        0.14920
N          2.69802       -0.80238        0.74718
H          1.04845       -0.12315        1.84004
N          3.51678       -2.88941        0.01584
C          3.79888       -0.40920        1.58008
H          4.48661       -2.58356        0.14958
H         -1.20508        0.13521        1.76257
C         -2.57216        0.58415       -0.31722
O          4.70395        0.45964        0.92126
H          3.40601        0.16689        2.42515
H          4.32316       -1.29466        1.96020
C          5.69077       -0.10164        0.19862
O          5.86709       -1.30002        0.08358
N          6.42477        0.85802       -0.40409
H          6.38180        1.81581       -0.06039
O          7.62522        0.48255       -0.93891
H          7.49467        0.45401       -1.89865
H         -3.32847        0.72938       -1.09777
H         -3.11877        0.56458        0.63516
N         -0.85393        1.89399        0.90403
C         -1.64428        1.79737       -0.33636
C         -2.34759        3.17560       -0.31253
C         -2.55293        3.42803        1.17856
O         -1.66417        2.51755        1.84902
H         -0.98206        1.80076       -1.20330
C         -3.58284        3.35339       -1.17866
H         -1.60057        3.89005       -0.68881
H         -2.30275        4.45837        1.46796
H         -3.57093        3.18526        1.50921
O         -4.69117        2.68357       -0.62004
H         -3.78516        4.43565       -1.26772
H         -3.35609        2.98079       -2.19404
H         -5.42798        2.76082       -1.23635
O         -3.00821       -1.73511       -0.86053
S         -4.24152       -2.16366        0.16597
O         -5.02287       -0.95907        0.45248
O         -4.92004       -3.16251       -0.65245
O         -3.55401       -2.71404        1.35734
H          3.32807       -3.75181       -0.48528
H          0.41030        0.18929       -3.85108
H          0.96252       -2.99089       -0.74599
H         -1.90057       -2.93539        0.92788
