62
ZTX_206_solv.log	Energy: -1483139.0125307
C         -1.54247        1.39528        0.75276
N         -1.07177        1.51685        2.11028
C         -0.27577        0.61442        2.68017
C         -0.73310        1.98358       -0.42256
H         -2.46546        1.98236        0.68453
N          0.27988        0.85386        3.85350
H          0.19950        1.77049        4.28333
H         -1.37710        2.31445        2.66114
N          0.00066       -0.53077        2.02324
C          0.29006       -1.44129       -0.17484
C          1.67707       -1.06670        0.50050
C          1.33392       -1.11945        1.99131
O          0.18038       -2.81234       -0.35828
O          0.04008       -0.73622       -1.33997
H          2.03918       -0.55084        2.60833
H          1.31360       -2.16290        2.33443
O         -1.38848        2.31905       -1.40392
C         -1.87349       -0.05628        0.42859
C         -0.79202       -1.03754        0.90223
N         -1.60008       -2.16360        1.30395
C         -2.88658       -1.84509        1.43070
N         -3.08715       -0.54968        1.09198
H         -1.99172       -0.16478       -0.65814
N         -3.80955       -2.68323        1.84106
C         -4.36379        0.00306        0.72142
H         -4.78574       -2.41747        1.90859
H          0.75396       -0.96566       -1.96191
C          2.29668        0.28210        0.08111
O         -4.53348       -0.11110       -0.67776
H         -5.17125       -0.54012        1.22233
H         -4.41724        1.05564        1.02163
C         -4.54033        1.02409       -1.40603
O         -4.71677        2.13538       -0.95132
N         -4.39670        0.77145       -2.73075
H         -4.17029        1.57493       -3.31401
O         -3.80174       -0.39819       -3.13138
H         -4.51173       -0.95225       -3.48789
H          3.29138        0.24559        0.54272
H          2.46079        0.28525       -1.00497
N          0.60367        2.09146       -0.38946
C          1.69388        1.63934        0.47573
C          2.67621        2.80639        0.22688
C          2.42723        3.14299       -1.24487
O          1.16392        2.54816       -1.57435
H          1.38555        1.68336        1.52144
C          4.13475        2.57224        0.56790
H          2.32507        3.64478        0.84651
H          2.37812        4.22522       -1.42874
H          3.17919        2.69210       -1.90899
O          4.80155        3.80686        0.40931
H          4.21523        2.19892        1.60593
H          4.56825        1.80649       -0.09883
H          5.74794        3.64656        0.49517
O          2.64801       -2.09068        0.31557
S          3.35812       -2.39208       -1.15520
O          4.40357       -1.38633       -1.34197
O          3.83331       -3.75670       -0.96261
O          2.23419       -2.26732       -2.11981
H         -3.55025       -3.63192        2.09451
H          0.76862        0.11993        4.35595
H         -1.21035       -3.07537        1.52255
H          0.81227       -3.04343       -1.06284
