62
ZTX_485_solv.log	Energy: -1483137.1475224
C         -1.67406        1.09948        0.84752
N         -1.25220        1.07723        2.22588
C         -0.39961        0.17374        2.70852
C         -0.88482        1.89853       -0.20897
H         -2.63972        1.61741        0.82613
N          0.10696        0.31038        3.91973
H         -0.06210        1.15705        4.45455
H         -1.63335        1.77435        2.85964
N         -0.01907       -0.85628        1.92556
C          0.39010       -1.52258       -0.34194
C          1.71735       -1.10218        0.39579
C          1.35742       -1.34161        1.86473
O          0.49107       -2.87846       -0.62129
O          0.11208       -0.78053       -1.47164
H          2.00582       -0.79249        2.55703
H          1.41043       -2.41444        2.09631
O         -1.54748        2.32536       -1.15972
C         -1.87398       -0.31632        0.31929
C         -0.75371       -1.27970        0.73321
N         -1.50574       -2.48739        0.98394
C         -2.81785       -2.25963        1.08011
N         -3.08913       -0.96354        0.82293
H         -1.92596       -0.28304       -0.77492
N         -3.69428       -3.18587        1.39365
C         -4.37185       -0.43188        0.42768
H         -4.68203       -2.97769        1.49202
H          0.89858       -0.89509       -2.04653
C          2.22155        0.33804        0.14429
O         -4.29152       -0.12296       -0.94889
H         -5.16125       -1.17215        0.59925
H         -4.60782        0.47332        1.00184
C         -4.71335        1.09421       -1.34233
O         -5.52648        1.76054       -0.73427
N         -4.17839        1.45788       -2.53255
H         -4.34864        2.41870       -2.82403
O         -2.99880        0.90959       -2.96733
H         -2.30429        1.33521       -2.41470
H          3.21931        0.31734        0.59928
H          2.37406        0.48146       -0.93303
N          0.43417        2.08397       -0.13961
C          1.53332        1.59406        0.69554
C          2.44741        2.83714        0.61799
C          2.23956        3.29437       -0.82371
O          0.97101        2.75731       -1.22635
H          1.20231        1.49071        1.72974
C          3.90572        2.65623        1.02252
H          2.01282        3.58630        1.29627
H          2.20944        4.38762       -0.92534
H          3.00339        2.88325       -1.50148
O          4.56833        3.89656        1.14208
H          3.94678        2.17130        2.00992
H          4.43121        2.00136        0.30650
H          4.73759        4.23444        0.25464
O          2.77068       -2.00151        0.09908
S          3.55041       -1.99992       -1.37487
O          4.69529       -1.10126       -1.19585
O          3.89589       -3.41049       -1.52130
O          2.56472       -1.50100       -2.35947
H         -3.38062       -4.13437        1.57542
H          0.64008       -0.43994        4.34712
H         -1.06381       -3.36541        1.24126
H         -0.28236       -3.12765       -1.14722
