62
ZTX_29_solv.log	Energy: -1483139.9617204
C          0.98845       -1.93651        0.62174
N          0.38534       -1.79939        1.92425
C         -0.36783       -0.75047        2.25128
C          0.21070       -2.60581       -0.53440
H          1.82505       -2.63445        0.73341
N         -1.06031       -0.74189        3.37551
H         -1.12011       -1.57939        3.94684
H          0.54982       -2.52131        2.62027
N         -0.45362        0.27678        1.38625
C         -0.37569        0.91142       -0.92075
C         -1.85654        0.82099       -0.36772
C         -1.67643        1.03364        1.14753
O         -0.07225        2.17259       -1.39924
O         -0.09843       -0.01318       -1.90982
H         -2.51440        0.63122        1.72782
H         -1.52973        2.08734        1.41385
O          0.89712       -3.17851       -1.37371
C          1.53829       -0.59634        0.14131
C          0.52366        0.54559        0.33275
N          1.38931        1.63816        0.70243
C          2.60572        1.22388        1.04808
N          2.70105       -0.11844        0.90242
H          1.80576       -0.67824       -0.91989
N          3.56780        2.00815        1.47782
C          3.91820       -0.86343        1.02463
H          4.54030        1.68504        1.43406
H         -0.68962        0.14559       -2.65967
C         -2.59350       -0.50084       -0.66529
O          4.68336       -0.87369       -0.17067
H          4.50939       -0.46838        1.85950
H          3.67693       -1.91009        1.23126
C          5.70706       -0.00310       -0.27329
O          5.99381        0.82944        0.56759
N          6.33295       -0.16931       -1.45538
H          6.20020       -1.02659       -1.98862
O          7.53236        0.45946       -1.63036
H          7.35761        1.21642       -2.21021
H         -3.61870       -0.27362       -0.34802
H         -2.62276       -0.64248       -1.75511
N         -1.12844       -2.55425       -0.62832
C         -2.22540       -1.82904        0.00976
C         -3.32702       -2.90500       -0.14975
C         -2.99061       -3.52302       -1.50578
O         -1.63359       -3.14736       -1.77937
H         -2.03998       -1.72088        1.07801
C         -4.76019       -2.43530       -0.01998
H         -3.13938       -3.64927        0.63826
H         -3.07224       -4.61906       -1.49977
H         -3.60808       -3.11500       -2.31947
O         -4.90469       -1.80923        1.23727
H         -5.01556       -1.74721       -0.84494
H         -5.42710       -3.31109       -0.11428
H         -5.78850       -1.42714        1.28357
O         -2.65962        1.77473       -1.05264
S         -3.07233        3.25742       -0.44245
O         -3.81878        3.82345       -1.55774
O         -3.84583        2.99764        0.77382
O         -1.76367        3.90901       -0.18196
H          3.38912        3.00542        1.54893
H         -1.53401        0.09867        3.68913
H          1.10317        2.61233        0.67592
H         -0.61032        2.86988       -0.96248
