62
ZTX_448_solv.log	Energy: -1483139.8187863
C          1.59672       -1.41420        0.68752
N          1.20427       -1.47032        2.07375
C          0.45183       -0.53158        2.64864
C          0.71347       -2.05309       -0.40386
H          2.51256       -2.00768        0.59265
N         -0.01512       -0.70203        3.87121
H          0.08901       -1.59516        4.34342
H          1.55542       -2.23255        2.64708
N          0.12744        0.57581        1.94928
C         -0.28989        1.39048       -0.26692
C         -1.62834        1.02434        0.48528
C         -1.21530        1.15139        1.95538
O         -0.30578        2.76070       -0.48501
O         -0.08518        0.68280       -1.43441
H         -1.88060        0.60452        2.63351
H         -1.19073        2.20947        2.25051
O          1.28879       -2.41897       -1.43196
C          1.91768        0.02057        0.29256
C          0.85734        1.02426        0.76358
N          1.68210        2.17327        1.06011
C          2.96395        1.82926        1.23128
N          3.14525        0.53783        0.90868
H          1.98880        0.08400       -0.80141
N          3.88553        2.65592        1.66940
C          4.42594       -0.12422        0.72838
H          4.85146        2.37213        1.78929
H         -0.87129        0.87862       -1.98705
C         -2.24440       -0.35740        0.16279
O          4.43502       -0.81020       -0.49642
H          5.23898        0.61112        0.78250
H          4.57258       -0.89665        1.49192
C          4.39246       -0.05926       -1.62312
O          4.64873        1.12963       -1.65423
N          3.98740       -0.79117       -2.67201
H          3.93995       -0.37735       -3.59914
O          3.72671       -2.12615       -2.56661
H          2.84112       -2.20439       -2.13486
H         -3.24142       -0.30185        0.61492
H         -2.41040       -0.43160       -0.91934
N         -0.60362       -2.21126       -0.25408
C         -1.63697       -1.68226        0.64103
C         -2.62086       -2.87361        0.56261
C         -2.49660       -3.30223       -0.89775
O         -1.23796       -2.77776       -1.35025
H         -1.26658       -1.64276        1.66580
C         -4.04017       -2.67489        1.06712
H         -2.17806       -3.65724        1.19438
H         -2.49447       -4.39465       -1.01703
H         -3.27872       -2.86144       -1.52941
O         -4.81102       -1.93615        0.14554
H         -4.48405       -3.67257        1.23249
H         -3.99518       -2.17256        2.05043
H         -5.66889       -1.75913        0.54740
O         -2.61503        2.01785        0.27099
S         -3.41352        2.17618       -1.18445
O         -2.50176        1.63354       -2.21606
O         -4.64067        1.39038       -1.02482
O         -3.61562        3.62076       -1.25110
H          3.63493        3.61593        1.88573
H         -0.47604        0.06035        4.35765
H          1.29065        3.05582        1.37725
H          0.47364        2.98336       -1.01412
