62
ZTX_499_solv.log	Energy: -1483139.6023771
C          1.55972       -1.46269        0.55917
N          1.09868       -1.67081        1.90929
C          0.30102       -0.80966        2.54145
C          0.74051       -1.98177       -0.63971
H          2.48813       -2.03425        0.45075
N         -0.23289       -1.12313        3.70702
H         -0.13702       -2.06176        4.08298
H          1.42860       -2.48934        2.41333
N          0.00055        0.36555        1.95139
C         -0.30721        1.43240       -0.17367
C         -1.67840        0.98459        0.46412
C         -1.34282        0.93956        1.95831
O         -0.32001        2.81821       -0.23496
O         -0.04124        0.86167       -1.40187
H         -2.03927        0.31366        2.52906
H         -1.33945        1.95489        2.37790
O          1.37244       -2.24385       -1.66582
C          1.87836        0.00944        0.33283
C          0.78940        0.95061        0.86601
N          1.58992        2.05888        1.33166
C          2.87182        1.71379        1.49568
N          3.07720        0.46574        1.04354
H          1.98817        0.19201       -0.74436
N          3.77257        2.50038        2.03887
C          4.36649       -0.17225        0.84490
H          4.74393        2.22356        2.12821
H         -0.79809        1.12122       -1.96890
C         -2.26646       -0.35451       -0.03587
O          4.42664       -0.73708       -0.43852
H          5.17311        0.55500        1.00159
H          4.49017       -1.01455        1.53511
C          4.42699        0.11638       -1.48999
O          4.64863        1.30888       -1.39313
N          4.11619       -0.52307       -2.62751
H          4.06518       -0.01378       -3.50572
O          3.85706       -1.86199       -2.66051
H          2.95287       -1.98144       -2.28018
H         -3.27552       -0.33962        0.39449
H         -2.39693       -0.30708       -1.12446
N         -0.58524       -2.12918       -0.58954
C         -1.66359       -1.72195        0.31263
C         -2.63673       -2.88936        0.02696
C         -2.45581       -3.08647       -1.47352
O         -1.15752       -2.55387       -1.78132
H         -1.34606       -1.80680        1.35189
C         -4.08204       -2.72703        0.46995
H         -2.22408       -3.76310        0.55314
H         -2.48625       -4.14408       -1.76840
H         -3.19322       -2.51957       -2.06176
O         -4.20325       -2.61740        1.87165
H         -4.55999       -1.87776       -0.04886
H         -4.63412       -3.63022        0.17027
H         -3.90313       -1.74147        2.14221
O         -2.66118        1.99244        0.31038
S         -3.39710        2.29291       -1.15603
O         -2.42418        1.88565       -2.19401
O         -4.60904        1.46729       -1.14419
O         -3.63331        3.73095       -1.07500
H          3.50517        3.42872        2.35151
H         -0.71751       -0.42355        4.25990
H          1.18125        2.91007        1.70702
H          0.48086        3.09876       -0.70058
