62
ZTX_134_solv.log	Energy: -1483140.6298862
C          1.44133        1.25796        0.60699
N          1.57259        1.48871       -0.81063
C          0.95951        0.72878       -1.71597
C          0.30363        1.92600        1.41211
H          2.32298        1.70468        1.07919
N          0.95054        1.07071       -2.99120
H          1.31551        1.97232       -3.28359
H          2.18707        2.23304       -1.12805
N          0.29873       -0.36896       -1.30007
C         -0.89793       -1.38152        0.51460
C         -1.87154       -0.79152       -0.58164
C         -0.99059       -0.78091       -1.83383
O         -0.98151       -2.75279        0.60707
O         -1.15567       -0.75766        1.72831
H         -1.35253       -0.08193       -2.59701
H         -0.93902       -1.79084       -2.26391
O          0.56334        2.17647        2.58502
C          1.46172       -0.23906        0.91050
C          0.55716       -1.05074       -0.03279
N          1.36037       -2.23306       -0.24832
C          2.63889       -2.02867        0.07210
N          2.77731       -0.84611        0.71144
H          1.15556       -0.38884        1.95450
N          3.62246       -2.86434       -0.16812
C          3.89381       -0.47393        1.53604
H          4.58454       -2.52071       -0.07946
H         -0.75572       -1.28512        2.43480
C         -2.47460        0.59073       -0.26714
O          4.73043        0.48845        0.92109
H          3.51034        0.01159        2.44039
H          4.47169       -1.36180        1.82121
C          5.67590        0.03630        0.07666
O          5.87791       -1.13810       -0.16946
N          6.33264        1.07667       -0.47797
H          6.28328        1.99670       -0.04394
O          7.49201        0.80377       -1.14707
H          7.28076        0.87518       -2.09027
H         -3.27771        0.70440       -1.00387
H         -2.96430        0.55390        0.71320
N         -0.90097        2.18896        0.88045
C         -1.63140        1.87286       -0.34814
C         -2.48152        3.16463       -0.43460
C         -2.78962        3.45232        1.03380
O         -1.81243        2.71837        1.78604
H         -0.95299        1.88812       -1.20230
C         -3.67997        3.18364       -1.36885
H         -1.79384        3.93913       -0.80395
H         -2.70860        4.52133        1.27731
H         -3.77737        3.07857        1.33319
O         -4.76840        2.47371       -0.81960
H         -3.95557        4.23843       -1.54601
H         -3.37275        2.76102       -2.34267
H         -5.46387        2.43172       -1.48541
O         -2.91719       -1.70278       -0.90707
S         -4.19013       -2.13285        0.06917
O         -4.97366       -0.92684        0.34174
O         -4.84424       -3.11858       -0.78442
O         -3.55141       -2.70143        1.27990
H          3.43798       -3.71099       -0.69701
H          0.60635        0.42947       -3.69830
H          1.04116       -3.00962       -0.81961
H         -1.89864       -2.95400        0.90452
