62
ZTX_81_solv.log	Energy: -1483139.9957816
C          0.98844       -1.93393        0.61031
N          0.38957       -1.79791        1.91489
C         -0.36261       -0.74938        2.24532
C          0.20817       -2.60508       -0.54286
H          1.82643       -2.63068        0.71916
N         -1.05083       -0.74164        3.37216
H         -1.10995       -1.58011        3.94214
H          0.55642       -2.52050        2.60969
N         -0.45187        0.27855        1.38148
C         -0.38302        0.91433       -0.92523
C         -1.86193        0.82006       -0.36771
C         -1.67719        1.03294        1.14690
O         -0.08346        2.17619       -1.40332
O         -0.10796       -0.00898       -1.91637
H         -2.51220        0.62885        1.73032
H         -1.53151        2.08702        1.41231
O          0.89217       -3.17723       -1.38454
C          1.53556       -0.59323        0.12887
C          0.52137        0.54826        0.32444
N          1.38794        1.64124        0.69064
C          2.60541        1.22704        1.03357
N          2.70020       -0.11529        0.88706
H          1.79961       -0.67404       -0.93328
N          3.56868        2.01083        1.46058
C          3.91623       -0.86058        1.01024
H          4.54118        1.68648        1.41589
H         -0.70181        0.15094       -2.66383
C         -2.59688       -0.50338       -0.66346
O          4.68635       -0.85786       -0.18254
H          4.50377       -0.47062        1.85005
H          3.67435       -1.90878        1.20904
C          5.73660       -0.01677       -0.25242
O          6.00500        0.82552        0.58522
N          6.46059       -0.27569       -1.35883
H          6.07057       -0.84691       -2.10607
O          7.39084        0.64870       -1.73894
H          8.25239        0.28077       -1.49021
H         -3.62189       -0.27765       -0.34447
H         -2.62774       -0.64546       -1.75318
N         -1.13121       -2.55637       -0.63050
C         -2.22553       -1.83087        0.01146
C         -3.32716       -2.90718       -0.14252
C         -2.99894       -3.52110       -1.50213
O         -1.64054       -3.15185       -1.77859
H         -2.03552       -1.72182        1.07876
C         -4.75953       -2.43870       -0.00088
H         -3.13280       -3.65312        0.64234
H         -3.08624       -4.61670       -1.50100
H         -3.61726       -3.10585       -2.31161
O         -4.89373       -1.81292        1.25770
H         -5.02216       -1.75042       -0.82342
H         -5.42665       -3.31488       -0.08994
H         -5.77766       -1.43223        1.31197
O         -2.66923        1.77211       -1.04991
S         -3.08334        3.25380       -0.43835
O         -3.83334        3.81873       -1.55179
O         -3.85346        2.99214        0.77965
O         -1.77531        3.90790       -0.18058
H          3.39122        3.00846        1.53007
H         -1.52300        0.09882        3.68843
H          1.10219        2.61541        0.66186
H         -0.62244        2.87207       -0.96528
