62
ZTX_431_solv.log	Energy: -1483135.9401628
C         -1.24521        1.55290        0.84063
N         -0.53764        1.48228        2.09613
C          0.39836        0.56532        2.33425
C         -0.67609        2.38757       -0.32887
H         -2.18413        2.08170        1.03724
N          1.15889        0.63772        3.41113
H          1.11270        1.45103        4.01764
H         -0.78209        2.13727        2.83361
N          0.59667       -0.40820        1.42554
C          0.47095       -0.98687       -0.89397
C          1.94779       -0.64635       -0.43377
C          1.91405       -0.93007        1.07993
O          0.35919       -2.27117       -1.39098
O         -0.03026       -0.10623       -1.83403
H          2.70426       -0.39789        1.62190
H          1.97615       -1.99885        1.31597
O         -1.50443        2.86191       -1.09873
C         -1.58810        0.15371        0.33885
C         -0.39066       -0.80680        0.42479
N         -1.04340       -2.03541        0.80930
C         -2.27416       -1.82980        1.26751
N         -2.61096       -0.52099        1.15147
H         -1.93465        0.21689       -0.70059
N         -3.04539       -2.77186        1.75670
C         -3.96759       -0.07681        1.12106
H         -3.99259       -2.58058        2.06467
H          0.50562       -0.17633       -2.63682
C          2.41798        0.79478       -0.72599
O         -4.51964       -0.44503       -0.13757
H         -4.53936       -0.53376        1.93991
H         -4.00027        1.01213        1.24828
C         -5.75542        0.01393       -0.39625
O         -6.38763        0.73016        0.34984
N         -6.19371       -0.48919       -1.57968
H         -5.50927       -0.82742       -2.25361
O         -7.28526        0.12322       -2.13678
H         -8.02455       -0.49038       -2.01464
H          3.49003        0.73806       -0.50209
H          2.32972        0.97379       -1.80706
N          0.64304        2.57251       -0.50200
C          1.88329        2.01703        0.03621
C          2.77515        3.26866       -0.13569
C          2.27590        3.84301       -1.45794
O          0.96394        3.29293       -1.64810
H          1.78777        1.84049        1.10738
C          4.27670        3.05486       -0.05718
H          2.48749        3.95373        0.67725
H          2.20983        4.93984       -1.44538
H          2.89128        3.52347       -2.31232
O          4.65118        2.37970        1.12437
H          4.62941        2.44438       -0.90125
H          4.77853        4.03502       -0.14067
H          4.38408        2.92320        1.87594
O          2.85584       -1.42358       -1.20518
S          3.56385       -2.82350       -0.67736
O          2.41122       -3.70180       -0.35241
O          4.31499       -3.22275       -1.85966
O          4.36583       -2.46123        0.49320
H         -2.69501       -3.72225        1.82849
H          1.77043       -0.12989        3.66880
H         -0.56703       -2.93292        0.83661
H          1.04030       -2.87222       -1.01487
