62
ZTX_359_solv.log	Energy: -1483141.0901267
C         -1.09426        1.84158        0.78902
N         -0.44934        1.67649        2.06885
C          0.34877        0.64632        2.33912
C         -0.37640        2.59420       -0.35505
H         -1.94136        2.51394        0.95678
N          1.11789        0.64663        3.41157
H          1.20686        1.48453        3.97882
H         -0.57809        2.39564        2.77525
N          0.39593       -0.37966        1.46680
C          0.14272       -1.15723       -0.76992
C          1.64790       -0.88805       -0.42039
C          1.63838       -1.05337        1.10636
O         -0.07446       -2.52060       -0.88001
O         -0.20369       -0.48606       -1.92982
H          2.49882       -0.57982        1.59183
H          1.61303       -2.11479        1.38320
O         -1.10212        3.22051       -1.12035
C         -1.64124        0.51297        0.27315
C         -0.66614       -0.66540        0.50342
N         -1.55405       -1.69110        0.99629
C         -2.78803       -1.24695        1.21669
N         -2.86191        0.07897        0.96419
H         -1.85048        0.61203       -0.80002
N         -3.78456       -1.99352        1.63819
C         -4.08217        0.82743        0.91758
H         -4.74741       -1.67406        1.48717
H         -1.02077       -0.87595       -2.27369
C          2.19783        0.46064       -0.91694
O         -4.72755        0.74035       -0.34334
H         -4.75054        0.49418        1.72032
H         -3.86025        1.88842        1.06635
C         -5.74841       -0.12952       -0.47084
O         -6.10376       -0.91060        0.39264
N         -6.33725        0.02678       -1.67336
H         -5.86191        0.53994       -2.41341
O         -7.19848       -0.94893       -2.08731
H         -8.09019       -0.58667       -1.97304
H          3.26553        0.27109       -1.05269
H          1.79574        0.65718       -1.91864
N          0.95937        2.58126       -0.49209
C          2.04830        1.71678       -0.04739
C          3.21438        2.71178       -0.18413
C          2.84304        3.44028       -1.46913
O          1.41679        3.31332       -1.58946
H          1.95069        1.49975        1.01510
C          4.61220        2.10658       -0.14429
H          3.11872        3.40932        0.66173
H          3.10084        4.50787       -1.44903
H          3.29609        2.97020       -2.35576
O          4.78418        1.27000        0.98030
H          4.82932        1.56307       -1.07930
H          5.34340        2.92812       -0.08436
H          4.63347        0.34969        0.70476
O          2.36166       -1.90422       -1.11353
S          3.80104       -2.53769       -0.53106
O          4.39555       -3.04334       -1.76205
O          4.50968       -1.39819        0.07930
O          3.39269       -3.56130        0.43422
H         -3.62248       -2.98651        1.77730
H          1.62110       -0.18990        3.68920
H         -1.29565       -2.67319        0.99024
H          0.74127       -2.89789       -1.25260
