62
ZTX_407_solv.log	Energy: -1483140.5892361
C         -1.53461        1.40683       -0.09645
N         -1.38751        1.10706        1.30763
C         -0.53381        0.19020        1.76483
C         -0.62644        2.48187       -0.73758
H         -2.52620        1.85491       -0.21690
N         -0.24563        0.12152        3.05101
H         -0.58255        0.83470        3.69056
H         -1.93292        1.64210        1.97798
N          0.06947       -0.62799        0.88407
C          0.89397       -1.05963       -1.31108
C          2.06514       -0.74219       -0.29492
C          1.42743       -1.13301        1.04738
O          0.97646       -2.38156       -1.69048
O          0.90950       -0.28657       -2.46599
H          1.91987       -0.65645        1.90170
H          1.43441       -2.22174        1.19063
O         -1.14907        3.43096       -1.28148
C         -1.49182        0.12481       -0.93685
C         -0.44047       -0.90439       -0.45419
N         -1.21148       -2.12707       -0.46315
C         -2.51555       -1.91962       -0.62244
N         -2.75272       -0.61286       -0.86167
H         -1.29913        0.37933       -1.98949
N         -3.43973       -2.85140       -0.58236
C         -3.97012       -0.07606       -1.40228
H         -4.42069       -2.56407       -0.49293
H          0.92482        0.65714       -2.24004
C          2.60464        0.69631       -0.30328
O         -4.77718        0.55157       -0.42160
H         -3.71366        0.71226       -2.11849
H         -4.53558       -0.86232       -1.91740
C         -5.66506       -0.21560        0.23836
O         -5.79017       -1.41653        0.08361
N         -6.41763        0.54928        1.05371
H         -6.12812        1.49837        1.28185
O         -7.18212       -0.08273        1.99139
H         -8.09175       -0.05763        1.65774
H          3.45359        0.66875        0.39056
H          3.00891        0.90409       -1.30546
N          0.71205        2.18022       -0.91085
C          1.69004        1.83555        0.13313
C          2.39460        3.20085        0.31013
C          2.34758        3.79363       -1.09448
O          1.35519        3.03188       -1.80384
H          1.17875        1.61516        1.07126
C          3.78223        3.15238        0.91442
H          1.74889        3.79588        0.97352
H          2.05970        4.85395       -1.09597
H          3.29566        3.66907       -1.63791
O          3.68982        2.52852        2.17753
H          4.46865        2.60518        0.24463
H          4.16803        4.18422        1.00088
H          4.58395        2.36560        2.49857
O          3.13834       -1.57132       -0.71315
S          4.20776       -2.29397        0.36721
O          5.35346       -2.52662       -0.50630
O          4.41213       -1.29791        1.42710
O          3.51164       -3.50736        0.80970
H         -3.17358       -3.80495       -0.35736
H          0.26756       -0.66835        3.42862
H         -0.79344       -3.03281       -0.27573
H          1.92255       -2.61036       -1.66497
