62
ZTX_135_solv.log	Energy: -1483141.4113802
C         -1.48245        1.39199       -0.36893
N         -1.37366        1.22507        1.05936
C         -0.61638        0.28298        1.61891
C         -0.51353        2.32178       -1.13207
H         -2.43937        1.89340       -0.55159
N         -0.39291        0.28499        2.92011
H         -0.69333        1.06787        3.49282
H         -1.91291        1.84047        1.66224
N         -0.03868       -0.64554        0.83032
C          0.84398       -1.11739       -1.33346
C          1.97816       -0.74421       -0.31090
C          1.32910       -1.11589        1.03095
O          0.95605       -2.44520       -1.69968
O          0.91469       -0.26803       -2.42738
H          1.79994       -0.61092        1.88126
H          1.35526       -2.20023        1.19915
O         -0.97927        2.87574       -2.12324
C         -1.53501        0.03472       -1.06764
C         -0.50545       -0.97123       -0.51858
N         -1.27956       -2.19240       -0.51022
C         -2.58871       -1.95757       -0.59673
N         -2.81090       -0.65392       -0.87052
H         -1.37318        0.18579       -2.14365
N         -3.52987       -2.86395       -0.46817
C         -4.03778       -0.11193       -1.38479
H         -4.49481       -2.54651       -0.32931
H          0.43392       -0.67542       -3.16213
C          2.49879        0.70424       -0.35970
O         -4.76992        0.60787       -0.40943
H         -3.79574        0.61940       -2.16390
H         -4.65515       -0.90875       -1.81798
C         -5.58574       -0.09524        0.39767
O         -5.75811       -1.29761        0.32923
N         -6.14866        0.72545        1.30983
H         -6.16152        1.73025        1.14363
O         -7.20386        0.23591        2.02689
H         -6.86138        0.05403        2.91500
H          3.40931        0.64683        0.24683
H          2.80650        0.92217       -1.39118
N          0.76694        2.48274       -0.76513
C          1.68932        1.88240        0.19713
C          2.55406        3.13175        0.48924
C          2.61079        3.81772       -0.87294
O          1.50429        3.29247       -1.62045
H          1.16583        1.63580        1.12120
C          3.90743        2.88156        1.11946
H          1.96428        3.75486        1.17819
H          2.51172        4.90979       -0.80087
H          3.52685        3.56924       -1.42936
O          3.70838        2.15527        2.31405
H          4.56067        2.33230        0.42012
H          4.39307        3.85489        1.31475
H          4.55563        1.78534        2.58634
O          3.07815       -1.56035       -0.69339
S          4.14042       -2.24280        0.41562
O          3.45851       -3.45839        0.87417
O          5.30328       -2.47475       -0.43543
O          4.31407       -1.22292        1.45904
H         -3.27360       -3.81329       -0.21509
H          0.06378       -0.50178        3.36978
H         -0.87927       -3.08419       -0.23530
H          1.90817       -2.64775       -1.68083
