62
ZTX_310_solv.log	Energy: -1483137.9249564
C         -1.67424        1.09760        0.84794
N         -1.25372        1.07238        2.22659
C         -0.40375        0.16611        2.70869
C         -0.88193        1.89489       -0.20749
H         -2.63881        1.61752        0.82615
N          0.10060        0.29898        3.92124
H         -0.06914        1.14415        4.45822
H         -1.63539        1.76826        2.86141
N         -0.02306       -0.86246        1.92392
C          0.39226       -1.51622       -0.34641
C          1.71817       -1.10364        0.39843
C          1.35268       -1.35013        1.86504
O          0.49181       -2.86966       -0.63725
O          0.11837       -0.76388       -1.47027
H          2.00002       -0.80620        2.56239
H          1.40250       -2.42433        2.09099
O         -1.54163        2.32009       -1.16060
C         -1.87517       -0.31705        0.31731
C         -0.75430       -1.28072        0.72769
N         -1.50522       -2.49065        0.97002
C         -2.81739       -2.26426        1.06874
N         -3.08933       -0.96612        0.82112
H         -1.92864       -0.28164       -0.77680
N         -3.69295       -3.19340        1.37599
C         -4.37223       -0.43199        0.42992
H         -4.68092       -2.98710        1.47594
H          0.90690       -0.87293       -2.04334
C          2.22763        0.33665        0.15710
O         -4.29534       -0.12132       -0.94648
H         -5.16265       -1.17063        0.60329
H         -4.60483        0.47290        1.00593
C         -4.71596        1.09733       -1.33676
O         -5.52675        1.76382       -0.72574
N         -4.18241        1.46265       -2.52702
H         -4.35192        2.42410       -2.81686
O         -3.00533        0.91245       -2.96595
H         -2.30823        1.33520       -2.41445
H          3.21967        0.31282        0.62462
H          2.39277        0.48407       -0.91784
N          0.43757        2.07827       -0.13552
C          1.53448        1.59105        0.70463
C          2.44281        2.83853        0.63327
C          2.21726        3.33221       -0.79553
O          0.98300        2.73652       -1.22489
H          1.19847        1.48464        1.73681
C          3.90259        2.65472        0.99862
H          2.01809        3.57262        1.33405
H          2.12804        4.42508       -0.85871
H          3.00173        2.98611       -1.48440
O          4.49132        3.93788        1.01302
H          3.97585        2.16329        1.98681
H          4.40551        2.00455        0.26188
H          5.44489        3.82558        1.09534
O          2.77001       -2.00401        0.10029
S          3.55341       -1.99717       -1.37197
O          4.70444       -1.10858       -1.18212
O          3.88883       -3.40900       -1.52873
O          2.57416       -1.48324       -2.35521
H         -3.37818       -4.14263        1.55196
H          0.63121       -0.45344        4.34806
H         -1.06261       -3.37091        1.21826
H         -0.28001       -3.11277       -1.16843
