62
ZTX_37_solv.log	Energy: -1483142.5089445
C          1.40533        1.20819        0.73283
N          1.52045        1.54135       -0.66493
C          0.89642        0.84747       -1.61477
C          0.26797        1.80569        1.59176
H          2.28680        1.62931        1.22862
N          0.87016        1.28356       -2.86078
H          1.22503        2.20759       -3.08804
H          2.12963        2.30832       -0.93494
N          0.24314       -0.27983       -1.27139
C         -0.93507       -1.40018        0.49343
C         -1.91914       -0.75010       -0.55781
C         -1.05343       -0.65439       -1.81719
O         -1.02710       -2.77338        0.52332
O         -1.17207       -0.83251        1.73877
H         -1.42479        0.09774       -2.52390
H         -1.00833       -1.63123       -2.31833
O          0.52605        1.95241        2.78187
C          1.43713       -0.30574        0.92645
C          0.51437       -1.04727       -0.05517
N          1.30602       -2.21782       -0.35829
C          2.59093       -2.03982       -0.04737
N          2.74795       -0.89802        0.65887
H          1.15130       -0.53226        1.96203
N          3.56425       -2.86533       -0.35363
C          3.88387       -0.58391        1.48133
H          4.53179       -2.54100       -0.25103
H         -0.76962       -1.39724        2.41432
C         -2.51826        0.60973       -0.15477
O          4.72358        0.39714        0.90068
H          3.52272       -0.14008        2.41551
H          4.45422       -1.49225        1.71160
C          5.66798       -0.02612        0.04001
O          5.86330       -1.19073       -0.25374
N          6.33284        1.03133       -0.47067
H          6.28708        1.93431       -0.00180
O          7.49357        0.77763       -1.14509
H          7.28519        0.87850       -2.08620
H         -3.30455        0.76330       -0.90287
H         -3.01569        0.51385        0.81773
N         -0.92976        2.13442        1.07907
C         -1.67142        1.89256       -0.15904
C         -2.53812        3.17463       -0.15212
C         -2.82482        3.36832        1.33523
O         -1.83739        2.59214        2.02765
H         -1.00564        1.96007       -1.01941
C         -3.77497        3.16327       -1.02479
H         -1.88201        3.98682       -0.49889
H         -3.80906        2.97377        1.62767
H         -2.74529        4.41962        1.64574
O         -3.37444        2.87997       -2.34881
H         -4.50031        2.41768       -0.65405
H         -4.26469        4.15108       -0.95355
H         -4.16723        2.78662       -2.88888
O         -2.96564       -1.64178       -0.92810
S         -4.23775       -2.10984        0.03166
O         -5.03230       -0.91705        0.33183
O         -4.88129       -3.07746       -0.85013
O         -3.59689       -2.70357        1.22865
H          3.36530       -3.68012       -0.92555
H          0.51823        0.69678       -3.60986
H          0.97212       -2.95810       -0.96812
H         -1.94134       -2.97974        0.82474
