62
ZTX_327_solv.log	Energy: -1483140.6280978
C          1.44149        1.25803        0.60621
N          1.57259        1.48850       -0.81149
C          0.95923        0.72854       -1.71662
C          0.30408        1.92645        1.41142
H          2.32330        1.70462        1.07821
N          0.94999        1.07039       -2.99187
H          1.31506        1.97190       -3.28443
H          2.18693        2.23284       -1.12914
N          0.29844       -0.36910       -1.30049
C         -0.89790       -1.38167        0.51440
C         -1.87171       -0.79151       -0.58158
C         -0.99103       -0.78095       -1.83395
O         -0.98152       -2.75295        0.60675
O         -1.15543       -0.75796        1.72825
H         -1.35311       -0.08190       -2.59700
H         -0.93964       -1.79086       -2.26410
O          0.56419        2.17735        2.58417
C          1.46168       -0.23896        0.90997
C          0.55711       -1.05079       -0.03320
N          1.36042       -2.23304       -0.24868
C          2.63888       -2.02866        0.07191
N          2.77726       -0.84606        0.71117
H          1.15540       -0.38851        1.95397
N          3.62246       -2.86439       -0.16807
C          3.89353       -0.47392        1.53611
H          4.58454       -2.52080       -0.07928
H         -0.75530       -1.28552        2.43456
C         -2.47459        0.59079       -0.26685
O          4.73043        0.48838        0.92137
H          3.50979        0.01171        2.44029
H          4.47124       -1.36180        1.82155
C          5.67598        0.03620        0.07708
O          5.87807       -1.13820       -0.16896
N          6.33266        1.07659       -0.47771
H          6.28384        1.99633       -0.04299
O          7.49242        0.80346       -1.14612
H          7.28168        0.87477       -2.08943
H         -3.27805        0.70443       -1.00320
H         -2.96382        0.55402        0.71371
N         -0.90074        2.18913        0.88014
C         -1.63143        1.87294       -0.34825
C         -2.48159        3.16468       -0.43469
C         -2.78915        3.45277        1.03377
O         -1.81193        2.71869        1.78587
H         -0.95320        1.88811       -1.20257
C         -3.68042        3.18343       -1.36845
H         -1.79409        3.93911       -0.80451
H         -2.70778        4.52180        1.27703
H         -3.77690        3.07932        1.33355
O         -4.76856        2.47350       -0.81863
H         -3.95621        4.23815       -1.54570
H         -3.37358        2.76066       -2.34232
H         -5.46416        2.43096       -1.48428
O         -2.91754       -1.70265       -0.90685
S         -4.19024       -2.13280        0.06968
O         -4.84483       -3.11811       -0.78402
O         -3.55124       -2.70194        1.28000
O         -4.97345       -0.92673        0.34293
H          3.43803       -3.71098       -0.69707
H          0.60573        0.42907       -3.69885
H          1.04128       -3.00959       -0.82000
H         -1.89862       -2.95418        0.90428
