62
ZTX_423_solv.log	Energy: -1483136.9402058
C         -1.41371        1.62109        0.45964
N         -0.88063        1.98568        1.74823
C         -0.04721        1.19684        2.42291
C         -0.65088        1.98365       -0.83603
H         -2.33571        2.19668        0.32364
N          0.56476        1.63583        3.50721
H          0.49564        2.61317        3.77520
H         -1.17852        2.86031        2.17108
N          0.20574       -0.04214        1.95433
C          0.37051       -1.33987       -0.06186
C          1.78620       -0.86131        0.45140
C          1.53858       -0.62880        1.94485
O          0.23214       -2.70912       -0.02355
O          0.15607       -0.82866       -1.33506
H          2.27771        0.04596        2.39275
H          1.55277       -1.58820        2.47997
O         -1.34130        2.12305       -1.83913
C         -1.77089        0.14048        0.43269
C         -0.65245       -0.74728        1.00149
N         -1.42105       -1.77674        1.65732
C         -2.69380       -1.42737        1.82264
N         -2.92465       -0.21086        1.27196
H         -1.98078       -0.14999       -0.60593
N         -3.58451       -2.17133        2.43624
C         -4.23803        0.28939        0.98019
H         -4.55954       -1.89878        2.49649
H         -0.54119       -1.34888       -1.75977
C          2.36938        0.37702       -0.25515
O         -4.73940       -0.26896       -0.22051
H         -4.92498        0.01682        1.78816
H         -4.20677        1.38165        0.90693
C         -4.78954        0.52506       -1.30836
O         -4.51267        1.70792       -1.31740
N         -5.14905       -0.15951       -2.41889
H         -5.44761        0.38682       -3.22417
O         -5.71720       -1.40115       -2.31504
H         -5.02979       -2.03195       -2.57663
H          3.40828        0.39173        0.09346
H          2.40041        0.19271       -1.33554
N          0.68275        2.15290       -0.86046
C          1.81594        1.78951       -0.00810
C          2.79434        2.89534       -0.46599
C          2.49573        2.99085       -1.95879
O          1.18233        2.43939       -2.12833
H          1.58289        1.98314        1.03953
C          4.26033        2.69749       -0.12127
H          2.45232        3.82117        0.02270
H          2.50295        4.02616       -2.32700
H          3.18700        2.38315       -2.56199
O          4.44921        2.46737        1.25851
H          4.67286        1.82693       -0.65208
H          4.82711        3.58025       -0.46630
H          4.12803        3.24241        1.73591
O          2.74455       -1.91450        0.42445
S          3.41727       -2.59873       -0.93174
O          4.16189       -1.55529       -1.63917
O          4.23620       -3.63589       -0.31469
O          2.25636       -3.11045       -1.69842
H         -3.30109       -3.05020        2.85880
H          1.08590        0.99977        4.10207
H         -1.01341       -2.64547        1.98956
H          0.90324       -3.07471       -0.64525
