62
ZTX_278_solv.log	Energy: -1483135.7290937
C         -1.57666        1.48079        0.76947
N         -1.09638        1.62098        2.12149
C         -0.29727        0.72392        2.69503
C         -0.76799        2.04374       -0.42031
H         -2.49529        2.07348        0.69751
N          0.27426        0.97717        3.85781
H          0.20546        1.90074        4.27461
H         -1.39340        2.42813        2.66285
N         -0.03549       -0.43073        2.04942
C          0.22681       -1.38985       -0.14098
C          1.61586       -1.02176        0.51306
C          1.29124       -1.02933        2.01002
O          0.07552       -2.74654       -0.32310
O          0.08495       -0.68303       -1.32651
H          2.01153       -0.45046        2.59944
H          1.26951       -2.06318        2.38081
O         -1.42803        2.37413       -1.40045
C         -1.92006        0.02692        0.46687
C         -0.84857       -0.95600        0.95312
N         -1.66563       -2.06016        1.39363
C         -2.95169       -1.73518        1.49538
N         -3.15208       -0.44982        1.10655
H         -2.02949       -0.08579       -0.61899
N         -3.87868       -2.55691        1.92929
C         -4.40844        0.03929        0.58964
H         -4.85082       -2.27841        2.00468
H         -0.63089       -1.07942       -1.84527
C          2.24642        0.30338        0.04471
O         -4.44417       -0.18590       -0.80652
H         -5.24758       -0.48716        1.05375
H         -4.50956        1.10994        0.80303
C         -4.37284        0.88816       -1.62017
O         -4.71277        2.00944       -1.30893
N         -3.94274        0.54876       -2.86385
H         -3.65705        1.32792       -3.45445
O         -3.16090       -0.57028       -3.01388
H         -3.72003       -1.23497       -3.44236
H          3.25692        0.25829        0.46930
H          2.36181        0.27693       -1.04548
N          0.57069        2.13508       -0.40385
C          1.67126        1.67203        0.44415
C          2.66262        2.82592        0.17297
C          2.39600        3.15390       -1.29704
O          1.11818        2.57714       -1.60085
H          1.38278        1.72561        1.49504
C          4.12292        2.57789        0.49584
H          2.32950        3.67283        0.79109
H          2.36192        4.23510       -1.49028
H          3.13006        2.68461       -1.96850
O          4.80212        3.80340        0.31974
H          4.21298        2.21065        1.53526
H          4.53888        1.80286       -0.17120
H          5.74782        3.63142        0.38881
O          2.56920       -2.06999        0.36794
S          3.30644       -2.54164       -1.04470
O          4.10365       -1.41435       -1.53211
O          4.07595       -3.68269       -0.56185
O          2.18299       -2.89614       -1.94377
H         -3.62380       -3.49847        2.21215
H          0.76528        0.24814        4.36512
H         -1.27929       -2.96024        1.66220
H          0.77103       -3.01752       -0.96551
