62
ZTX_493_solv.log	Energy: -1483143.1644032
C          1.39797        1.28125        0.52055
N          1.50137        1.53517       -0.89655
C          0.86121        0.80540       -1.80887
C          0.29933        1.95350        1.37036
H          2.29919        1.70428        0.97678
N          0.82044        1.18804       -3.07172
H          1.17830        2.09867       -3.34424
H          2.10394        2.29091       -1.20986
N          0.20789       -0.30428       -1.41251
C         -0.90391       -1.45799        0.35171
C         -1.92648       -0.76298       -0.63831
C         -1.10061       -0.69835       -1.92485
O         -0.93505       -2.83940        0.19856
O         -1.05160       -1.05471        1.66722
H         -1.48604        0.03847       -2.63983
H         -1.06379       -1.68544       -2.40600
O          0.60426        2.20250        2.53327
C          1.39822       -0.21896        0.80409
C          0.52003       -1.02291       -0.17712
N          1.37050       -2.15830       -0.45319
C          2.62642       -1.96744       -0.05411
N          2.72394       -0.81672        0.64428
H          1.04693       -0.39050        1.82978
N          3.62484       -2.79011       -0.27942
C          3.80461       -0.46184        1.52072
H          4.58130       -2.45548       -0.11801
H         -1.99818       -1.15943        1.89249
C         -2.49660        0.61799       -0.24286
O          4.68186        0.49361        0.95019
H          3.38264        0.02248        2.40834
H          4.36044       -1.35714        1.82610
C          5.71568        0.03069        0.22414
O          5.92075       -1.14529       -0.01487
N          6.50911        1.05283       -0.15519
H          6.16850        2.01116       -0.10844
O          7.44487        0.80209       -1.11774
H          8.29447        0.73256       -0.65633
H         -3.34130        0.74233       -0.93081
H         -2.93452        0.55959        0.75997
N         -0.92456        2.20481        0.88653
C         -1.67115        1.90643       -0.33376
C         -2.52927        3.19412       -0.38919
C         -2.81713        3.45941        1.08672
O         -1.81086        2.73811        1.81387
H         -1.00900        1.93739       -1.19929
C         -3.73861        3.22204       -1.30876
H         -1.85016        3.97738       -0.75633
H         -2.75199        4.52665        1.34167
H         -3.79238        3.06341        1.39867
O         -4.81514        2.48995       -0.76419
H         -4.02582        4.27767       -1.45946
H         -3.43813        2.82356       -2.29494
H         -5.53001        2.48749       -1.41067
O         -3.03903       -1.60824       -0.92427
S         -4.05018       -2.21841        0.24447
O         -3.78080       -1.44760        1.47445
O         -5.37525       -2.04007       -0.32781
O         -3.59683       -3.61897        0.35057
H          3.46943       -3.61424       -0.85128
H          0.46075        0.56853       -3.79045
H          1.06539       -2.94035       -1.02338
H         -1.83756       -3.20343        0.30160
