62
ZTX_217_solv.log	Energy: -1483143.5887376
C         -1.58966        0.79696       -0.78069
N         -1.76509        1.18137        0.59857
C         -1.08086        0.61123        1.58849
C         -0.54017        1.50129       -1.66507
H         -2.52009        1.07914       -1.28473
N         -1.14170        1.09024        2.81679
H         -1.62021        1.96654        3.00222
H         -2.54496        1.79423        0.82469
N         -0.27446       -0.42976        1.30042
C          1.02497       -1.51184       -0.38789
C          1.92821       -0.66500        0.60851
C          1.05682       -0.60366        1.86514
O          1.28999       -2.86820       -0.27029
O          1.10587       -1.07167       -1.69992
H          1.32374        0.23068        2.52487
H          1.13422       -1.54670        2.42440
O         -0.80552        1.56522       -2.86092
C         -1.44282       -0.71559       -0.89966
C         -0.44699       -1.28865        0.12838
N         -1.09485       -2.52662        0.49371
C         -2.38496       -2.52581        0.15942
N         -2.67921       -1.44308       -0.58677
H         -1.11266       -0.96971       -1.91468
N         -3.23960       -3.46245        0.50387
C         -3.91445       -1.29179       -1.31471
H         -4.21667       -3.41468        0.23502
H          2.03757       -1.17227       -1.96665
C          2.34272        0.73832        0.12444
O         -4.98526       -0.95438       -0.45560
H         -3.77371       -0.53724       -2.09749
H         -4.20514       -2.24161       -1.78125
C         -5.19999        0.35000       -0.18013
O         -4.60476        1.27398       -0.69341
N         -6.21006        0.46276        0.71024
H         -6.48716       -0.33856        1.27361
O         -6.39534        1.68444        1.29396
H         -7.16293        2.07916        0.85334
H          3.11747        1.02304        0.84544
H          2.83476        0.66931       -0.85508
N          0.59479        2.01321       -1.16076
C          1.34560        1.90528        0.08904
C          2.03969        3.28795        0.05284
C          2.30757        3.48405       -1.43826
O          1.44241        2.56211       -2.11564
H          0.66602        1.90835        0.94117
C          3.26153        3.45760        0.92992
H          1.28165        4.01560        0.37870
H          2.08545        4.50674       -1.77405
H          3.33888        3.22296       -1.71754
O          2.89088        3.15896        2.25918
H          4.07930        2.80180        0.58200
H          3.62105        4.49795        0.83498
H          3.68431        3.18794        2.80570
O          3.09319       -1.38380        0.99968
S          4.36345       -1.65342       -0.03568
O          5.13050       -0.41024       -0.11494
O          5.03686       -2.76023        0.63231
O          3.70213       -2.02274       -1.31477
H         -2.93052       -4.24225        1.07571
H         -0.73911        0.57723        3.59449
H         -0.66861       -3.20869        1.11331
H          2.18249       -3.00364       -0.63564
