62
ZTX_58_solv.log	Energy: -1483140.9596738
C          1.39717        1.17703        0.69236
N          1.49458        1.53196       -0.70249
C          0.84900        0.86835       -1.66003
C          0.28456        1.77451        1.58102
H          2.29180        1.58097        1.17827
N          0.79473        1.34451       -2.89037
H          1.14692        2.27470       -3.09587
H          2.09089        2.31213       -0.96330
N          0.20565       -0.27037       -1.33678
C         -0.90851       -1.52244        0.36804
C         -1.92711       -0.81037       -0.60305
C         -1.09584       -0.64888       -1.87834
O         -1.06127       -2.89013        0.18314
O         -1.04330       -1.15947        1.69281
H         -1.49014        0.12779       -2.54553
H         -1.04305       -1.60144       -2.42387
O          0.57538        1.93618        2.76208
C          1.41724       -0.34013        0.86628
C          0.51830       -1.06776       -0.15093
N          1.34621       -2.20060       -0.50635
C          2.62307       -2.01421       -0.15808
N          2.73796       -0.92291        0.62639
H          1.09308       -0.58868        1.88505
N          3.61816       -2.79548       -0.50402
C          3.84650       -0.63021        1.49271
H          4.57800       -2.46291       -0.35839
H         -1.97345       -1.37431        1.91820
C         -2.50313        0.53975       -0.11861
O          4.68609        0.38881        0.98010
H          3.45173       -0.23414        2.43471
H          4.42499       -1.53985        1.69696
C          5.66167        0.01904        0.13032
O          5.88675       -1.12878       -0.20562
N          6.32181        1.10788       -0.31666
H          6.24683        1.98850        0.18954
O          7.50820        0.90129       -0.96225
H          7.32969        1.04325       -1.90410
H         -3.34542        0.69278       -0.80360
H         -2.93928        0.41653        0.88082
N         -0.93429        2.06716        1.10286
C         -1.68180        1.83670       -0.13132
C         -2.56286        3.10715       -0.09475
C         -2.88145        3.22277        1.39064
O         -1.82550        2.52634        2.06860
H         -1.02900        1.92659       -0.99924
C         -3.77882        3.15239       -1.00642
H         -1.90249        3.93933       -0.38175
H         -2.90460        4.26420        1.73972
H         -3.82882        2.72719        1.65296
O         -3.42729        3.09235       -2.37249
H         -4.50386        2.36447       -0.73825
H         -4.28782        4.11480       -0.84656
H         -3.22524        2.17785       -2.60422
O         -2.99962       -1.67424       -0.93571
S         -4.23234       -2.00611        0.13557
O         -5.25583       -0.99091       -0.13266
O         -4.59910       -3.36345       -0.25742
O         -3.63954       -1.89415        1.48668
H          3.44393       -3.58317       -1.12030
H          0.43339        0.77873       -3.65105
H          1.05620       -2.87737       -1.20698
H         -0.47836       -3.33811        0.81245
