62
ZTX_506_solv.log	Energy: -1483141.4816487
C         -1.60092        0.78756       -0.71043
N         -1.74726        1.16046        0.67602
C         -1.03399        0.59662        1.64910
C         -0.57906        1.50412       -1.61671
H         -2.54440        1.06618       -1.19273
N         -1.05533        1.08756        2.87443
H         -1.52822        1.96526        3.06727
H         -2.49510        1.80445        0.92177
N         -0.23843       -0.44878        1.34621
C          1.02064       -1.57454       -0.33786
C          1.94241       -0.69170        0.59590
C          1.11016       -0.61491        1.87906
O          1.30862       -2.91975       -0.12382
O          1.09837       -1.24833       -1.67683
H          1.39387        0.23234        2.51493
H          1.20342       -1.54641        2.45491
O         -0.88273        1.59037       -2.80251
C         -1.44421       -0.72214       -0.84463
C         -0.44680       -1.30760        0.17611
N         -1.11133       -2.53176        0.55471
C         -2.39544       -2.53556        0.20391
N         -2.68219       -1.45490       -0.54819
H         -1.11035       -0.96352       -1.86176
N         -3.25260       -3.47408        0.53762
C         -3.90273       -1.31246       -1.30130
H         -4.22693       -3.42615        0.25933
H          2.04408       -1.33530       -1.91393
C          2.33883        0.70432        0.08049
O         -4.98846       -0.95413       -0.46938
H         -3.74456       -0.57224       -2.09436
H         -4.18871       -2.26883       -1.75700
C         -5.21385        0.35664       -0.23640
O         -4.66038        1.26881       -0.81278
N         -6.12218        0.48753        0.75715
H         -6.71028       -0.30486        1.00870
O         -6.70387        1.71577        0.91075
H         -6.29579        2.10802        1.69710
H          3.15738        0.98547        0.75247
H          2.76948        0.62278       -0.92543
N          0.57516        1.99552       -1.14119
C          1.34754        1.87445        0.09127
C          2.04420        3.25207        0.05367
C          2.33678        3.41869       -1.43269
O          1.39119        2.57504       -2.10886
H          0.68818        1.87224        0.95810
C          3.23606        3.43228        0.97743
H          1.27460        3.98414        0.34541
H          2.20486        4.45243       -1.78023
H          3.34514        3.06766       -1.69989
O          2.92126        3.08233        2.30856
H          4.07366        2.79033        0.66705
H          3.58847        4.47616        0.90491
H          2.19285        3.64400        2.60198
O          3.11639       -1.43179        0.91643
S          4.42096       -1.55063       -0.14718
O          5.25859       -0.38500        0.13152
O          4.97556       -2.83472        0.26741
O          3.81282       -1.54863       -1.49311
H         -2.94940       -4.25311        1.11350
H         -0.63428        0.57842        3.64497
H         -0.67206       -3.23385        1.14146
H          2.13115       -2.97290        0.38841
