62
ZTX_372_solv.log	Energy: -1483137.2132665
C         -1.38583        1.54387        0.69488
N         -0.88729        1.69317        2.03988
C         -0.11178        0.77673        2.61542
C         -0.56100        2.05868       -0.50646
H         -2.28079        2.16966        0.61614
N          0.46132        1.01176        3.78137
H          0.41046        1.93472        4.20213
H         -1.17626        2.50273        2.58183
N          0.12433       -0.37847        1.96300
C          0.33449       -1.34762       -0.22392
C          1.74232       -1.04013        0.42659
C          1.42656       -1.02525        1.92599
O          0.13914       -2.69488       -0.43788
O          0.20445       -0.61218       -1.39268
H          2.17094       -0.46835        2.50649
H          1.36902       -2.05470        2.30588
O         -1.21119        2.39880       -1.48867
C         -1.79436        0.09747        0.43819
C         -0.71313       -0.90029        0.88289
N         -1.52412       -1.99937        1.34769
C         -2.77740       -1.62417        1.58942
N         -2.96228       -0.33531        1.22056
H         -2.00337       -0.02948       -0.63309
N         -3.69064       -2.41017        2.11217
C         -4.25778        0.27153        1.10439
H         -4.66217       -2.12943        2.18971
H         -0.53079       -0.97706       -1.90563
C          2.41974        0.25737       -0.04716
O         -4.97302       -0.20274       -0.02135
H         -4.85923        0.02347        1.98583
H         -4.14135        1.35933        1.05737
C         -4.88510        0.51571       -1.16397
O         -4.23851        1.53144       -1.29185
N         -5.66975       -0.05107       -2.11092
H         -5.95641       -1.02279       -2.00939
O         -5.48826        0.36722       -3.40097
H         -6.24117        0.94232       -3.60369
H          3.42753        0.18549        0.38041
H          2.53521        0.22334       -1.13743
N          0.78077        2.12102       -0.49168
C          1.87889        1.64045        0.34796
C          2.89560        2.76785        0.05708
C          2.62204        3.08659       -1.41316
O          1.32956        2.53546       -1.69933
H          1.60533        1.70804        1.40181
C          4.36062        2.49314        0.36346
H          2.58369        3.62767        0.67035
H          2.61066        4.16628       -1.61753
H          3.33950        2.59490       -2.08666
O          5.15611        3.62619        0.08894
H          4.46550        2.16632        1.41403
H          4.74575        1.68613       -0.27687
H          4.87193        4.33872        0.67467
O          2.64716       -2.12898        0.28099
S          3.37455       -2.61385       -1.13217
O          2.24567       -2.84638       -2.06344
O          4.26974       -1.53867       -1.56374
O          4.04020       -3.82781       -0.67338
H         -3.44104       -3.35651        2.38355
H          0.93543        0.26996        4.28613
H         -1.15036       -2.92249        1.54468
H          0.82099       -2.96891       -1.09305
