62
ZTX_133_solv.log	Energy: -1483140.5645248
C          1.42765        1.28072        0.58451
N          1.54847        1.50901       -0.83437
C          0.93328        0.74453       -1.73427
C          0.29169        1.94524        1.39543
H          2.30993        1.73340        1.04987
N          0.91044        1.08672       -3.00932
H          1.26616        1.99112       -3.30450
H          2.15208        2.25988       -1.15711
N          0.28414       -0.35795       -1.31283
C         -0.89268       -1.38031        0.50949
C         -1.87785       -0.79635       -0.57924
C         -1.00555       -0.77977       -1.83741
O         -0.96405       -2.75256        0.59879
O         -1.14823       -0.76207        1.72651
H         -1.37799       -0.08388       -2.59832
H         -0.94948       -1.78944       -2.26751
O          0.55892        2.20341        2.56500
C          1.45818       -0.21523        0.89213
C          0.55656       -1.03632       -0.04651
N          1.36862       -2.21143       -0.26460
C          2.64511       -2.00082        0.05927
N          2.77725       -0.81505        0.69393
H          1.15369       -0.36337        1.93687
N          3.63231       -2.83371       -0.17431
C          3.89266       -0.43435        1.51591
H          4.59408       -2.49114       -0.07421
H         -0.73945       -1.28847        2.42879
C         -2.48820        0.58166       -0.26006
O          4.74026        0.50779        0.88441
H          3.50673        0.07125        2.40822
H          4.46275       -1.32056        1.82144
C          5.73179        0.02788        0.11092
O          5.92045       -1.15286       -0.11732
N          6.50494        1.04067       -0.32970
H          6.17036        2.00102       -0.28138
O          7.39108        0.76975       -1.33265
H          8.26278        0.71004       -0.91287
H         -3.29907        0.68878       -0.98922
H         -2.96818        0.54218        0.72495
N         -0.91942        2.19566        0.87251
C         -1.65546        1.87008       -0.35032
C         -2.51600        3.15507       -0.43471
C         -2.81812        3.44320        1.03471
O         -1.82801        2.72218        1.78264
H         -0.98284        1.88810       -1.20897
C         -3.71944        3.16364       -1.36259
H         -1.83614        3.93407       -0.80910
H         -2.74736        4.51359        1.27519
H         -3.79985        3.05930        1.34108
O         -4.79979        2.44640       -0.80696
H         -4.00384        4.21609       -1.53964
H         -3.41408        2.74204       -2.33745
H         -5.49995        2.40263       -1.46774
O         -2.91964       -1.71463       -0.89765
S         -4.18149       -2.15563        0.08809
O         -4.96923       -0.95508        0.37233
O         -4.83762       -3.14172       -0.76355
O         -3.52902       -2.72550        1.29084
H          3.45251       -3.68367       -0.69941
H          0.56620        0.44271       -3.71387
H          1.05207       -2.99472       -0.82799
H         -1.87741       -2.96239        0.90181
