62
ZTX_346_solv.log	Energy: -1483135.9499833
C         -1.51510        1.38824        0.68962
N         -1.03914        1.54584        2.04114
C         -0.22944        0.66222        2.62075
C         -0.71493        1.95687       -0.50157
H         -2.44548        1.96214        0.60917
N          0.32572        0.92339        3.78967
H          0.23625        1.84382        4.20922
H         -1.36006        2.34413        2.58187
N          0.06314       -0.48663        1.97668
C          0.36499       -1.40902       -0.22424
C          1.73987       -1.00668        0.44141
C          1.40889       -1.04170        1.93680
O          0.25972       -2.76652       -0.43142
O          0.20531       -0.68616       -1.39785
H          2.10766       -0.44686        2.53616
H          1.41882       -2.07991        2.29546
O         -1.37406        2.23622       -1.49738
C         -1.83601       -0.07322        0.40920
C         -0.72572       -1.02649        0.86754
N         -1.50399       -2.16688        1.29030
C         -2.78419       -1.85558        1.48539
N         -3.01069       -0.56755        1.13599
H         -2.00652       -0.19774       -0.66973
N         -3.67784       -2.69087        1.96206
C         -4.30745       -0.00434        0.88111
H         -4.65422       -2.43391        2.05840
H         -0.49838       -1.09733       -1.92008
C          2.33408        0.34064       -0.01131
O         -4.63928       -0.15068       -0.48664
H         -5.06393       -0.52465        1.47671
H         -4.31519        1.05554        1.15870
C         -4.69726        0.96518       -1.24198
O         -4.63428        2.09927       -0.80973
N         -4.80168        0.68030       -2.55901
H         -5.09563        1.43094       -3.18035
O         -5.11087       -0.58532       -2.97760
H         -4.28439       -0.96480       -3.31257
H          3.34424        0.31934        0.41589
H          2.45343        0.32743       -1.10132
N          0.61512        2.13522       -0.45378
C          1.72134        1.69031        0.39765
C          2.68470        2.87038        0.14496
C          2.42415        3.20059       -1.32572
O          1.16098        2.60006       -1.64429
H          1.42354        1.72617        1.44678
C          4.14648        2.65752        0.48531
H          2.32294        3.70410        0.76495
H          2.36974        4.28193       -1.51343
H          3.17424        2.75025       -1.99254
O          4.79447        3.90350        0.33782
H          4.23102        2.27743        1.52062
H          4.59326        1.90365       -0.18621
H          5.74237        3.75811        0.43339
O          2.72348       -2.02560        0.28861
S          3.48406       -2.45519       -1.12526
O          4.26203       -1.30236       -1.58256
O          4.27245       -3.58930       -0.65663
O          2.37682       -2.81546       -2.04209
H         -3.39843       -3.63185        2.22259
H          0.82887        0.20264        4.29697
H         -1.09029       -3.06591        1.51695
H          0.96600       -3.00220       -1.07612
