62
ZTX_295_solv.log	Energy: -1483138.8860374
C         -1.57489        0.81966       -0.74539
N         -1.74487        1.17364        0.64229
C         -1.10522        0.54235        1.62575
C         -0.47405        1.47908       -1.59736
H         -2.48149        1.16526       -1.25395
N         -1.16012        0.99531        2.86458
H         -1.59759        1.88991        3.06337
H         -2.47690        1.83953        0.87803
N         -0.35412       -0.53369        1.32131
C          0.94754       -1.61119       -0.37350
C          1.84875       -0.84816        0.67334
C          0.94919       -0.81475        1.91217
O          1.23825       -2.96332       -0.25426
O          1.08750       -1.16398       -1.67144
H          1.24104       -0.03682        2.62742
H          0.95724       -1.79102        2.41725
O         -0.71111        1.56923       -2.79791
C         -1.49651       -0.69332       -0.90630
C         -0.53595       -1.33468        0.11001
N         -1.23014       -2.56593        0.41951
C         -2.52479       -2.48727        0.10032
N         -2.76550       -1.37628       -0.62078
H         -1.16854       -0.93373       -1.92584
N         -3.42506       -3.38261        0.43412
C         -3.99824       -1.13981       -1.33012
H         -4.40113       -3.27170        0.18020
H          2.04151       -1.26824       -1.87163
C          2.32117        0.56832        0.27385
O         -5.03577       -0.74759       -0.45344
H         -3.82081       -0.38503       -2.10469
H         -4.35238       -2.06290       -1.80649
C         -5.18093        0.56577       -0.17433
O         -4.58911        1.46328       -0.73542
N         -6.05656        0.71574        0.84527
H         -6.68168       -0.05020        1.08942
O         -6.56408        1.96909        1.04968
H         -6.10818        2.31788        1.83021
H          3.06140        0.79490        1.05100
H          2.87181        0.51354       -0.67386
N          0.67742        1.91777       -1.06568
C          1.38374        1.78184        0.20789
C          2.16249        3.11647        0.17885
C          2.51058        3.24949       -1.30288
O          1.57099        2.42441       -2.00335
H          0.67944        1.83366        1.03948
C          3.34694        3.25430        1.12816
H          1.44086        3.90222        0.44709
H          2.42461        4.28216       -1.66861
H          3.51789        2.86557       -1.52647
O          3.80868        4.58670        1.19396
H          3.02742        2.97399        2.14374
H          4.16345        2.57201        0.83534
H          4.28456        4.78259        0.37808
O          2.98181       -1.62096        1.02584
S          4.28342       -1.79801       -0.00070
O          5.20395       -0.71667        0.36543
O          4.74519       -3.13898        0.34568
O          3.74363       -1.66600       -1.37221
H         -3.15558       -4.18938        0.98857
H         -0.79401        0.44665        3.63570
H         -0.85465       -3.24962        1.07083
H          0.74133       -3.43106       -0.94051
