62
ZTX_20_solv.log	Energy: -1483141.2545719
C          1.42790        1.23608        0.58242
N          1.55398        1.47840       -0.83473
C          0.94019        0.72980       -1.75003
C          0.30144        1.90266        1.40270
H          2.31436        1.67509        1.05249
N          0.92512        1.09274       -3.01933
H          1.28164        2.00213       -3.29772
H          2.16082        2.23183       -1.14539
N          0.28616       -0.37816       -1.35025
C         -0.87389       -1.48146        0.42486
C         -1.86794       -0.84831       -0.62472
C         -1.00516       -0.79284       -1.88818
O         -1.02621       -2.85973        0.34691
O         -1.03688       -1.01439        1.71308
H         -1.37947       -0.07239       -2.62520
H         -0.94570       -1.78715       -2.35256
O          0.57714        2.16191        2.57027
C          1.44359       -0.26255        0.87592
C          0.56587       -1.07313       -0.09545
N          1.39834       -2.23341       -0.33201
C          2.66835       -2.01585        0.02250
N          2.76971       -0.85677        0.70478
H          1.10276       -0.43078        1.90586
N          3.66963       -2.82650       -0.22638
C          3.86628       -0.47922        1.55277
H          4.62458       -2.47255       -0.10552
H         -1.97268       -1.20952        1.93304
C         -2.45919        0.53471       -0.26538
O          4.69526        0.50850        0.96756
H          3.45933       -0.01623        2.45857
H          4.45579       -1.36171        1.83097
C          5.66586        0.08881        0.13529
O          5.89683       -1.07724       -0.12471
N          6.31246        1.15029       -0.39011
H          6.23620        2.06238        0.05652
O          7.49001        0.91042       -1.03986
H          7.29567        0.99131       -1.98589
H         -3.28087        0.65154       -0.98091
H         -2.92807        0.48485        0.72574
N         -0.91397        2.14417        0.88937
C         -1.63769        1.82886       -0.34126
C         -2.50442        3.10998       -0.42224
C         -2.81508        3.38963        1.04686
O         -1.82304        2.67251        1.79687
H         -0.95920        1.85885       -1.19424
C         -3.70373        3.11458       -1.35554
H         -1.82698        3.89432       -0.78980
H         -2.75199        4.45923        1.29251
H         -3.79567        2.99812        1.34702
O         -4.78284        2.39283       -0.80349
H         -3.99180        4.16576       -1.53435
H         -3.39277        2.69377       -2.32885
H         -5.46884        2.31875       -1.47624
O         -2.93062       -1.73920       -0.91563
S         -4.17672       -2.01679        0.15423
O         -5.22317       -1.06446       -0.22927
O         -4.49161       -3.41556       -0.12207
O         -3.62443       -1.76619        1.50421
H          3.50798       -3.66083       -0.78182
H          0.58149        0.46175       -3.73588
H          1.11844       -2.97472       -0.96842
H         -0.46515       -3.25616        1.02874
