62
ZTX_512_solv.log	Energy: -1483138.1614647
C         -1.18620        1.64186        0.78715
N         -0.60072        1.38621        2.07916
C          0.13839        0.30644        2.32774
C         -0.40092        2.42326       -0.29057
H         -2.02706        2.32406        0.95260
N          0.80757        0.19677        3.46085
H          0.85587        0.98081        4.10485
H         -0.78399        2.04020        2.83498
N          0.23401       -0.65094        1.38361
C          0.24093       -1.01701       -0.97526
C          1.70064       -0.92476       -0.39425
C          1.48593       -1.33210        1.07271
O         -0.00098       -2.28654       -1.46329
O          0.07593       -0.04443       -1.94941
H          2.29227       -0.99473        1.73169
H          1.37594       -2.42008        1.16975
O         -1.08452        3.02834       -1.10894
C         -1.72228        0.35170        0.17843
C         -0.70777       -0.80151        0.27293
N         -1.58099       -1.92846        0.49186
C         -2.79934       -1.55354        0.87321
N         -2.89122       -0.20247        0.87595
H         -1.98372        0.53992       -0.87170
N         -3.76470       -2.37805        1.21023
C         -4.10153        0.52926        1.09495
H         -4.73671       -2.05001        1.18647
H         -0.70830       -0.26206       -2.47384
C          2.41848        0.42839       -0.56048
O         -4.86045        0.70240       -0.09246
H         -4.69694        0.03164        1.86951
H         -3.85632        1.53797        1.43938
C         -5.87658       -0.14417       -0.31389
O         -6.16676       -1.08207        0.41323
N         -6.58675        0.17508       -1.41347
H         -7.24030       -0.51541       -1.77683
O         -6.09759        1.06874       -2.32444
H         -6.57271        1.89924       -2.16888
H          2.41829        0.67851       -1.63008
H          3.45261        0.18413       -0.28878
N          0.94217        2.45740       -0.32097
C          2.04026        1.67441        0.25324
C          3.13269        2.76427        0.22206
C          2.81286        3.51601       -1.06981
O          1.45518        3.18350       -1.39051
H          1.83651        1.44982        1.30149
C          4.57117        2.30159        0.33820
H          2.93288        3.42757        1.07682
H          2.90238        4.60558       -0.95907
H          3.43733        3.18111       -1.91139
O          5.37401        3.45643        0.46263
H          4.67370        1.63936        1.21818
H          4.86270        1.71957       -0.55324
H          6.29652        3.18112        0.41845
O          2.44993       -1.84768       -1.17290
S          3.66488       -2.81632       -0.53190
O          4.33999       -1.97286        0.46397
O          2.95177       -3.96517        0.03773
O          4.43773       -3.10698       -1.73520
H         -3.58612       -3.37721        1.17152
H          1.25961       -0.67514        3.71605
H         -1.28708       -2.88986        0.35035
H          0.85453       -2.61768       -1.78975
