62
ZTX_79_solv.log	Energy: -1483142.3503540
C          0.95440       -1.98534        0.13870
N          0.50921       -2.32608        1.46715
C         -0.09250       -1.44601        2.26505
C          0.00190       -2.12827       -1.06901
H          1.72937       -2.71095       -0.12910
N         -0.65995       -1.83412        3.39200
H         -0.74021       -2.82211        3.61362
H          0.66861       -3.26957        1.80889
N         -0.16029       -0.15851        1.87648
C         -0.25996        1.30183       -0.01466
C         -1.69036        1.06817        0.63805
C         -1.32971        0.68556        2.07568
O          0.13846        2.62401        0.11476
O         -0.17948        0.85613       -1.32384
H         -2.13542        0.14452        2.58559
H         -1.07691        1.58596        2.65298
O          0.54210       -2.37404       -2.14199
C          1.57643       -0.59371        0.11834
C          0.71932        0.43972        0.87300
N          1.73521        1.25032        1.49859
C          2.93450        0.67396        1.46646
N          2.86674       -0.50910        0.81386
H          1.70229       -0.27384       -0.92388
N          4.02025        1.17825        2.00818
C          3.99450       -1.31819        0.46015
H          4.93579        0.86018        1.67241
H         -0.83558        1.36658       -1.83196
C         -2.58116        0.00921       -0.04390
O          4.57110       -0.94595       -0.78087
H          4.74005       -1.28259        1.26382
H          3.66752       -2.35472        0.33530
C          5.62280       -0.10365       -0.75783
O          6.10585        0.37116        0.25372
N          6.02893        0.15826       -2.01583
H          5.73745       -0.44065       -2.78590
O          7.22686        0.79303       -2.17647
H          7.01688        1.71626       -2.38435
H         -3.55180        0.15483        0.44599
H         -2.72568        0.27509       -1.09980
N         -1.32894       -1.97808       -0.96295
C         -2.28203       -1.49666        0.03758
C         -3.49748       -2.35859       -0.37326
C         -3.36073       -2.40581       -1.89501
O         -1.99774       -2.06499       -2.17848
H         -1.98036       -1.81628        1.03617
C         -4.86746       -1.91646        0.12615
H         -3.31538       -3.36462        0.03244
H         -3.57937       -3.39993       -2.30960
H         -3.99420       -1.65530       -2.39185
O         -5.84614       -2.90936       -0.09589
H         -4.81893       -1.75055        1.21337
H         -5.16454       -0.96311       -0.34409
H         -6.04741       -2.92930       -1.03904
O         -2.42308        2.28232        0.75145
S         -3.06922        3.05924       -0.56727
O         -4.29541        2.34836       -0.92890
O         -3.26053        4.40244       -0.03457
O         -1.99921        2.95554       -1.59364
H          3.96075        2.08358        2.46485
H         -0.99675       -1.15350        4.06499
H          1.55645        2.18123        1.86177
H         -0.44035        3.14086       -0.47395
