62
ZTX_299_solv.log	Energy: -1483139.7496284
C          1.55617        0.96396        0.90453
N          1.75727        1.31664       -0.47876
C          1.13567        0.67656       -1.46825
C          0.42376        1.61651        1.72748
H          2.43945        1.31896        1.44665
N          1.21312        1.11848       -2.70954
H          1.65122        2.01283       -2.90826
H          2.49289        1.98075       -0.70726
N          0.37690       -0.39576       -1.16881
C         -0.95881       -1.43927        0.52933
C         -1.84289       -0.70592       -0.55761
C         -0.91664       -0.66677       -1.77697
O         -1.16484       -2.80010        0.54578
O         -1.19818       -0.85850        1.76862
H         -1.19834        0.11542       -2.49215
H         -0.92200       -1.64113       -2.28525
O          0.62902        1.70233        2.93333
C          1.48667       -0.55368        1.05926
C          0.53222       -1.20155        0.04444
N          1.23435       -2.43115       -0.25682
C          2.53859       -2.31320        0.01003
N          2.75746       -1.21557        0.76043
H          1.18642       -0.79329        2.08798
N          3.46557       -3.16155       -0.37419
C          3.97834       -0.86181        1.42488
H          4.44098       -2.85460       -0.35433
H         -0.87585       -1.45936        2.45565
C         -2.35300        0.69265       -0.16609
O          4.64021        0.19348        0.75064
H          3.74045       -0.46950        2.42016
H          4.62927       -1.73811        1.52964
C          5.35118       -0.13798       -0.33729
O          5.62188       -1.28334       -0.65878
N          5.71282        0.93614       -1.06631
H          6.43733        0.82062       -1.77204
O          5.54583        2.20137       -0.57663
H          4.77834        2.56813       -1.04188
H         -3.08677        0.91621       -0.94938
H         -2.90413        0.62757        0.77963
N         -0.70968        2.06816        1.16465
C         -1.40904        1.90399       -0.11031
C         -2.17062        3.25124       -0.11779
C         -2.50845        3.44591        1.35932
O         -1.62512        2.57559        2.07977
H         -0.69927        1.93102       -0.93769
C         -3.36237        3.35353       -1.04523
H         -1.43643        4.01287       -0.41987
H         -2.35290        4.48156        1.69304
H         -3.53534        3.13428        1.60045
O         -2.92317        3.06386       -2.35558
H         -4.16037        2.66092       -0.72437
H         -3.77594        4.37567       -0.97463
H         -3.69464        3.04122       -2.93298
O         -2.93649       -1.51150       -0.98388
S         -4.28561       -1.88127       -0.08836
O         -5.00531       -0.63240        0.16938
O         -4.95299       -2.80447       -0.99957
O         -3.74915       -2.51258        1.14028
H          3.20602       -3.92473       -0.99182
H          0.85840        0.56390       -3.48178
H          0.86336       -3.11276       -0.91235
H         -2.10498       -2.93075        0.80673
