62
ZTX_426_solv.log	Energy: -1483137.7805728
C         -1.39547        1.64483        0.69779
N         -0.89159        1.85139        2.03460
C         -0.08979        0.98119        2.64577
C         -0.59723        2.15379       -0.52530
H         -2.30528        2.24717        0.60838
N          0.50859        1.29932        3.77920
H          0.46037        2.24785        4.13875
H         -1.16860        2.69215        2.53343
N          0.14429       -0.21276        2.06491
C          0.29381       -1.39576       -0.00289
C          1.71886       -0.96039        0.53049
C          1.46202       -0.84206        2.03574
O          0.19265       -2.78418        0.04766
O         -0.01160       -0.91846       -1.26031
H          2.20940       -0.22333        2.54637
H          1.44009       -1.83737        2.50096
O         -1.26354        2.49808       -1.49535
C         -1.78347        0.18379        0.49538
C         -0.72693       -0.79643        1.04162
N         -1.56361       -1.82559        1.60920
C         -2.82716       -1.43757        1.74372
N         -2.99705       -0.19406        1.23849
H         -1.92940       -0.00880       -0.57541
N         -3.76841       -2.17305        2.28952
C         -4.29407        0.34325        0.93893
H         -4.73499       -1.86723        2.31956
H          0.70577       -1.23952       -1.84384
C          2.34082        0.31791       -0.06617
O         -4.89543       -0.29825       -0.17101
H         -4.96227        0.18152        1.79169
H         -4.20917        1.42085        0.76178
C         -4.75817        0.28474       -1.38375
O         -4.14910        1.31039       -1.59072
N         -5.44868       -0.43046       -2.30358
H         -5.68939       -1.39956       -2.10383
O         -5.19086       -0.15929       -3.61973
H         -5.95880        0.33322       -3.94601
H          3.38776        0.27007        0.25412
H          2.35564        0.24178       -1.16095
N          0.74462        2.19758       -0.53666
C          1.83987        1.71956        0.30690
C          2.86047        2.84407        0.00435
C          2.59841        3.13735       -1.47148
O          1.28873        2.61799       -1.74445
H          1.57482        1.81758        1.35977
C          4.31612        2.61769        0.37724
H          2.52292        3.70745        0.59576
H          2.61552        4.21367       -1.69415
H          3.30074        2.61164       -2.13136
O          4.95042        1.75693       -0.54307
H          4.81917        3.60074        0.39887
H          4.35611        2.21058        1.40373
H          5.82272        1.53886       -0.19652
O          2.62296       -2.04839        0.36451
S          3.33910       -2.41178       -1.11933
O          2.33902       -2.01776       -2.13253
O          4.57021       -1.62523       -1.15770
O          3.51988       -3.85230       -0.97231
H         -3.53697       -3.08277        2.67651
H          0.99728        0.59601        4.32365
H         -1.20534       -2.73980        1.86740
H          1.07371       -3.14287        0.24082
