62
ZTX_408_solv.log	Energy: -1483140.9690550
C          1.70203        1.02250        0.75358
N          1.92732        1.19396       -0.66129
C          1.21181        0.52914       -1.56998
C          0.68561        1.94040        1.47042
H          2.63025        1.32588        1.24455
N          1.30989        0.82573       -2.85211
H          1.84940        1.63314       -3.14933
H          2.80825        1.64005       -0.94435
N          0.34088       -0.40555       -1.14555
C         -1.01480       -1.40577        0.56195
C         -1.89211       -0.69137       -0.55950
C         -0.94419       -0.68449       -1.76357
O         -1.20595       -2.76680        0.53364
O         -1.26604       -0.96829        1.85757
H         -1.20573        0.08770       -2.49770
H         -0.95320       -1.66858       -2.25366
O          1.08034        2.61754        2.39611
C          1.45014       -0.45360        1.09234
C          0.49066       -1.15102        0.09885
N          1.18260       -2.40040       -0.13823
C          2.45946       -2.35018        0.23433
N          2.68181       -1.24000        0.96357
H          1.06589       -0.54312        2.11906
N          3.35202       -3.27677       -0.03975
C          3.91868       -0.84188        1.56805
H          4.34296       -3.06446        0.06485
H         -1.19226       -0.00219        1.90861
C         -2.39114        0.72233       -0.21925
O          4.57156        0.14602        0.78595
H          3.71070       -0.36147        2.53026
H          4.56550       -1.71110        1.73517
C          5.21837       -0.26664       -0.31447
O          5.57050       -1.41201       -0.51770
N          5.48878        0.76098       -1.15764
H          5.81075        0.51855       -2.09261
O          4.72483        1.89836       -1.10803
H          5.23907        2.56446       -0.62635
H         -3.05749        0.99024       -1.04861
H         -3.00891        0.68937        0.68827
N         -0.66129        1.76673        1.21600
C         -1.35376        1.83393       -0.08108
C         -1.94474        3.25999        0.00035
C         -2.24197        3.42178        1.48714
O         -1.48165        2.39576        2.14809
H         -0.62910        1.82993       -0.89658
C         -3.13029        3.53598       -0.89988
H         -1.13071        3.94522       -0.28055
H         -3.29984        3.24273        1.72883
H         -1.93742        4.40390        1.87428
O         -2.73400        3.29271       -2.23282
H         -3.98413        2.89838       -0.60929
H         -3.44637        4.58508       -0.75762
H         -3.51014        3.38185       -2.79732
O         -2.98271       -1.49848       -0.98539
S         -4.33468       -1.86995       -0.09542
O         -5.02202       -0.61487        0.21568
O         -5.02985       -2.74102       -1.03628
O         -3.80492       -2.56097        1.10315
H          3.08913       -4.04469       -0.64990
H          0.89552        0.22606       -3.55823
H          0.79105       -3.13421       -0.72022
H         -2.14566       -2.91656        0.78460
