62
ZTX_30_solv.log	Energy: -1483138.5811556
C         -1.21915        1.93070        0.15320
N         -0.63601        2.47248        1.35778
C          0.13599        1.75381        2.17091
C         -0.45243        1.99925       -1.18786
H         -2.08844        2.55503       -0.07842
N          0.81648        2.33065        3.14425
H          0.84674        3.34262        3.22296
H         -0.82475        3.44264        1.59428
N          0.25731        0.42973        1.95356
C          0.21532       -1.31583        0.31637
C          1.68735       -0.87528        0.66715
C          1.52428       -0.28671        2.07131
O          0.06667       -2.62263        0.76412
O         -0.11234       -1.18614       -1.01699
H          2.34211        0.39270        2.34000
H          1.46174       -1.09193        2.81645
O         -1.14389        2.10144       -2.19555
C         -1.71471        0.50574        0.38560
C         -0.70508       -0.34958        1.17483
N         -1.58406       -1.09353        2.04653
C         -2.80994       -0.57456        2.09400
N         -2.92798        0.44550        1.21587
H         -1.91050        0.02980       -0.58288
N         -3.76145       -1.01840        2.88254
C         -4.20292        0.94142        0.77156
H         -4.70239       -0.64080        2.85285
H          0.55091       -1.73119       -1.49194
C          2.35193        0.12584       -0.30387
O         -4.94778       -0.03407        0.06461
H         -4.81518        1.21987        1.63634
H         -4.04296        1.83083        0.15226
C         -4.73757       -0.13424       -1.26699
O         -3.93734        0.53007       -1.88805
N         -5.58788       -1.04878       -1.79001
H         -6.02457       -1.73291       -1.17514
O         -5.30930       -1.50030       -3.05140
H         -5.95645       -1.07835       -3.63594
H          3.40371        0.08073        0.00017
H          2.30502       -0.26647       -1.32775
N          0.88689        1.93234       -1.25138
C          1.98074        1.61388       -0.33779
C          3.07699        2.48793       -0.98801
C          2.77469        2.32695       -2.47310
O          1.39241        1.94813       -2.54788
H          1.78291        2.03246        0.64847
C          4.51176        2.18774       -0.58886
H          2.85050        3.52433       -0.69167
H          2.92180        3.25571       -3.04119
H          3.36495        1.51933       -2.93238
O          4.67618        2.17983        0.81313
H          4.81970        1.19652       -0.95327
H          5.17603        2.92632       -1.07112
H          4.42721        3.05032        1.14763
O          2.53350       -2.00305        0.80993
S          3.07855       -2.87333       -0.50170
O          4.35541       -2.25219       -0.86765
O          3.19090       -4.21345        0.06631
O          2.04034       -2.73251       -1.54656
H         -3.56806       -1.78350        3.52160
H          1.28361        1.77229        3.85131
H         -1.25029       -1.82527        2.66727
H         -0.79488       -2.94102        0.46013
