62
ZTX_524_solv.log	Energy: -1483145.8046116
C          1.56321        0.87176        1.04956
N          1.82612        1.28209       -0.30813
C          1.25948        0.66669       -1.34593
C          0.40175        1.50259        1.84570
H          2.42156        1.20507        1.64248
N          1.42516        1.12933       -2.57145
H          1.90898        2.00912       -2.72371
H          2.66939        1.84432       -0.47918
N          0.46218       -0.39595       -1.11677
C         -0.92614       -1.51184        0.47462
C         -1.77502       -0.72699       -0.61919
C         -0.80035       -0.64562       -1.79753
O         -1.13735       -2.87932        0.38832
O         -1.11909       -1.03082        1.76057
H         -1.04452        0.16517       -2.49459
H         -0.78129       -1.60004       -2.34273
O          0.55337        1.55229        3.06141
C          1.48668       -0.65137        1.14423
C          0.56845       -1.25004        0.06627
N          1.27736       -2.46972       -0.26012
C          2.57489       -2.35739        0.03841
N          2.76908       -1.30121        0.85024
H          1.14102       -0.94176        2.14467
N          3.50817       -3.18570       -0.37426
C          4.00504       -0.88887        1.44659
H          4.48535       -2.90744       -0.30510
H         -2.06372       -1.15125        1.96357
C         -2.28534        0.66644       -0.20507
O          4.53016        0.24558        0.77653
H          3.82018       -0.56084        2.47534
H          4.72476       -1.71661        1.45776
C          5.11838        0.03038       -0.41014
O          5.50225       -1.05431       -0.80118
N          5.29120        1.18125       -1.10679
H          5.55583        1.09683       -2.08607
O          4.50278        2.26921       -0.83271
H          5.01966        2.85900       -0.26185
H         -2.98042        0.92157       -1.01332
H         -2.88679        0.59046        0.71073
N         -0.70274        1.97751        1.24653
C         -1.33621        1.86526       -0.06570
C         -2.08599        3.21740       -0.06487
C         -2.51291        3.35073        1.39482
O         -1.65799        2.46506        2.13272
H         -0.58649        1.91181       -0.85550
C         -3.21188        3.37317       -1.07279
H         -1.32560        3.98355       -0.28291
H         -3.54785        3.01616        1.56050
H         -2.39382        4.37371        1.77828
O         -2.78555        3.08663       -2.38768
H         -4.03740        2.68285       -0.84511
H         -3.61953        4.39637       -0.99311
H         -2.08448        3.70939       -2.61673
O         -2.86838       -1.50343       -1.09354
S         -4.21180       -1.80566       -0.16494
O         -5.04676       -0.60518       -0.20989
O         -4.76196       -2.97418       -0.84070
O         -3.65090       -2.08671        1.18278
H          3.26105       -3.90725       -1.04513
H          1.11516        0.59242       -3.37473
H          0.92357       -3.12785       -0.94827
H         -2.05053       -3.02978        0.69242
