62
ZTX_375_solv.log	Energy: -1483141.3586129
C          1.53229        1.27157        0.43921
N          1.61496        1.41866       -0.99445
C          0.85458        0.71491       -1.83303
C          0.51313        2.13297        1.22092
H          2.48330        1.63188        0.84378
N          0.77464        1.04357       -3.10849
H          1.20593        1.89890       -3.44631
H          2.25719        2.10805       -1.37497
N          0.12816       -0.30473       -1.34108
C         -1.00156       -1.37951        0.48125
C         -2.02116       -0.74086       -0.55752
C         -1.18406       -0.68691       -1.83879
O         -1.07647       -2.75134        0.45822
O         -1.18640       -0.96311        1.79506
H         -1.56525        0.05139       -2.55498
H         -1.16205       -1.67712       -2.31540
O          0.92591        2.86843        2.09187
C          1.38790       -0.20566        0.82790
C          0.43952       -1.00285       -0.10038
N          1.22639       -2.18641       -0.36808
C          2.49015       -2.06955        0.02957
N          2.65973       -0.91648        0.70928
H          1.03672       -0.28390        1.86775
N          3.43417       -2.95894       -0.17905
C          3.77309       -0.60097        1.55850
H          4.40970       -2.67107       -0.04905
H         -1.21635        0.00515        1.84508
C         -2.58945        0.64002       -0.18821
O          4.67263        0.31936        0.96640
H          3.39468       -0.09872        2.45566
H          4.29861       -1.51764        1.85329
C          5.62365       -0.17782        0.15383
O          5.77907       -1.36075       -0.08453
N          6.34576        0.82978       -0.37895
H          6.32482        1.75275        0.05105
O          7.50913        0.50277       -1.01566
H          7.32646        0.58034       -1.96439
H         -3.33895        0.84461       -0.96294
H         -3.12987        0.57380        0.76554
N         -0.83076        1.83153        1.09039
C         -1.63404        1.82972       -0.14313
C         -2.32725        3.20659       -0.01861
C         -2.50230        3.36613        1.48803
O         -1.61951        2.40119        2.08508
H         -0.98426        1.87461       -1.01763
C         -3.60857        3.37735       -0.80634
H         -1.59917        3.94962       -0.37762
H         -2.23245        4.37148        1.83986
H         -3.52013        3.11951        1.82368
O         -3.32134        3.15321       -2.17013
H         -4.37787        2.67680       -0.43535
H         -3.99336        4.39928       -0.63784
H         -4.15172        3.17959       -2.65901
O         -3.08952       -1.62398       -0.87732
S         -4.31184       -2.10329        0.14090
O         -5.01117       -0.90212        0.60106
O         -5.07478       -2.95932       -0.76009
O         -3.61690       -2.82876        1.22996
H          3.22491       -3.78132       -0.73615
H          0.33470        0.42261       -3.77990
H          0.86991       -2.96619       -0.91123
H         -1.97821       -2.98618        0.77712
