62
ZTX_274_solv.log	Energy: -1483142.6319551
C         -1.56275        0.83515       -0.78866
N         -1.75210        1.19587        0.59456
C         -1.13401        0.55755        1.58681
C         -0.44409        1.48532       -1.62536
H         -2.45873        1.18568       -1.31130
N         -1.21521        1.00093        2.82758
H         -1.65865        1.89321        3.02366
H         -2.51537        1.83123        0.81644
N         -0.37486       -0.51555        1.29078
C          0.94147       -1.56622       -0.40602
C          1.83917       -0.81877        0.67343
C          0.91936       -0.79325        1.89690
O          1.15502       -2.93596       -0.37063
O          1.07829       -1.04630       -1.68314
H          1.19817       -0.02012        2.62259
H          0.92485       -1.77352        2.39418
O         -0.66013        1.56629       -2.83002
C         -1.49406       -0.67922       -0.94285
C         -0.53721       -1.31978        0.07873
N         -1.22827       -2.55243        0.37967
C         -2.51900       -2.47849        0.05386
N         -2.76428       -1.35678       -0.65160
H         -1.16723       -0.92620       -1.96091
N         -3.41652       -3.38402        0.36948
C         -3.99965       -1.11638       -1.35502
H         -4.39037       -3.27727        0.10612
H          2.01346       -1.15933       -1.93044
C          2.33441        0.58973        0.28787
O         -5.03920       -0.75304       -0.46851
H         -3.83110       -0.34413       -2.11410
H         -4.34739       -2.03193       -1.85061
C         -5.18204        0.55023       -0.14517
O         -4.54760        1.46003       -0.63635
N         -6.17062        0.68166        0.76631
H         -6.47596       -0.12452        1.30781
O         -6.28559        1.88984        1.39435
H         -7.05173        2.32943        0.99532
H          3.05681        0.81952        1.08097
H          2.90911        0.53628       -0.64657
N          0.69729        1.93382       -1.07729
C          1.39221        1.80024        0.20341
C          2.16032        3.14051        0.18091
C          2.49724        3.30435       -1.30194
O          1.61079        2.42211       -2.00373
H          0.67876        1.84657        1.02767
C          3.35204        3.27523        1.10790
H          1.43514        3.91674        0.46703
H          2.34518        4.33233       -1.65931
H          3.52371        2.98411       -1.53403
O          3.78292        4.61810        1.03622
H          3.05115        3.00038        2.13618
H          4.16048        2.58928        0.80003
H          4.60711        4.69247        1.52997
O          2.95574       -1.60723        1.06764
S          4.25554       -1.87336        0.06773
O          5.09230       -0.67431        0.11928
O          4.83549       -3.06501        0.67507
O          3.63380       -2.10594       -1.26197
H         -3.14672       -4.19532        0.91693
H         -0.86829        0.44469        3.60210
H         -0.83688       -3.26697        0.98579
H          2.05275       -3.07896       -0.72003
