62
ZTX_358_solv.log	Energy: -1483136.4157397
C          1.09987       -2.18880        0.50274
N          0.57672       -2.43538        1.82467
C         -0.13494       -1.53058        2.49642
C          0.21174       -2.50801       -0.72131
H          1.92969       -2.88756        0.35925
N         -0.81169       -1.87346        3.57672
H         -0.88443       -2.84960        3.84764
H          0.71700       -3.35240        2.23893
N         -0.19229       -0.27368        2.02174
C         -0.11177        1.25727        0.17401
C         -1.59506        1.03135        0.69842
C         -1.35438        0.59227        2.14535
O          0.30562        2.53932        0.44230
O          0.06395        1.02801       -1.18504
H         -2.21021        0.05115        2.56611
H         -1.13639        1.46869        2.77185
O          0.62848       -3.28537       -1.55263
C          1.64693       -0.76264        0.38016
C          0.77993        0.29835        1.09728
N          1.78303        1.05303        1.80900
C          2.99352        0.50608        1.75317
N          2.96381       -0.62285        1.01194
H          1.73832       -0.49586       -0.68290
N          4.03776        0.99296        2.38389
C          4.10686       -1.28396        0.43674
H          4.96913        0.62540        2.22626
H         -0.29552        0.16230       -1.43359
C         -2.44853        0.01383       -0.07938
O          4.22447       -1.01683       -0.94580
H          5.01691       -1.00030        0.97718
H          3.98442       -2.36968        0.50477
C          4.67359        0.20765       -1.30123
O          5.00800        1.06686       -0.51580
N          4.72667        0.29453       -2.65015
H          4.19301       -0.35835       -3.22081
O          4.89089        1.54095       -3.18794
H          5.81320        1.58642       -3.48124
H         -3.44493        0.08634        0.37588
H         -2.55519        0.34961       -1.11950
N         -0.88129       -1.69400       -0.95949
C         -2.03415       -1.45618       -0.07310
C         -3.06758       -2.41106       -0.70754
C         -2.71061       -2.36483       -2.19108
O         -1.38148       -1.81914       -2.25255
H         -1.82291       -1.82809        0.93107
C         -4.52496       -2.11911       -0.41046
H         -2.84318       -3.41558       -0.31790
H         -2.71406       -3.35800       -2.66048
H         -3.36408       -1.68639       -2.75883
O         -5.28467       -3.17372       -0.96150
H         -4.66962       -2.04486        0.68336
H         -4.81804       -1.15125       -0.85398
H         -6.21666       -2.94389       -0.87614
O         -2.31569        2.25136        0.82235
S         -2.82137        3.23292       -0.41997
O         -3.67942        2.43687       -1.29974
O         -3.50553        4.27334        0.33924
O         -1.56579        3.67542       -1.06970
H          3.94773        1.86617        2.89386
H         -1.21816       -1.16872        4.18304
H          1.57781        1.93653        2.26453
H         -0.26474        3.13674       -0.09386
