62
ZTX_373_solv.log	Energy: -1483135.1877287
C         -1.47779        1.15561        1.05706
N         -0.77517        0.91494        2.29215
C          0.14454       -0.03918        2.42173
C         -0.90027        2.13914        0.01355
H         -2.41415        1.65998        1.31780
N          0.89366       -0.10125        3.50753
H          0.85090        0.63920        4.20128
H         -1.01110        1.47963        3.10336
N          0.33627       -0.90985        1.40927
C          0.25721       -1.09510       -0.97229
C          1.71584       -0.80185       -0.45835
C          1.66287       -1.34327        0.98011
O          0.19496       -2.34885       -1.54912
O         -0.12570       -0.09691       -1.85499
H          2.44459       -0.92534        1.62241
H          1.74030       -2.43822        0.99120
O         -1.71937        2.69456       -0.70981
C         -1.82811       -0.16544        0.38432
C         -0.63519       -1.13520        0.33488
N         -1.30235       -2.40340        0.50248
C         -2.52603       -2.25933        1.00495
N         -2.84122       -0.94706        1.11156
H         -2.18306        0.03614       -0.63584
N         -3.30606       -3.26119        1.33813
C         -4.18311       -0.48295        1.32500
H         -4.25779       -3.11520        1.65659
H         -0.87994       -0.41494       -2.37179
C          2.19067        0.66033       -0.55375
O         -4.98346       -0.61408        0.16495
H         -4.65803       -1.08615        2.10636
H         -4.15788        0.55959        1.65953
C         -5.12996        0.47635       -0.62187
O         -4.61783        1.55314       -0.41215
N         -5.97417        0.18386       -1.63958
H         -6.13785       -0.78937       -1.89025
O         -6.01169        1.06560       -2.68518
H         -6.84301        1.55453       -2.59284
H          3.26555        0.57674       -0.35302
H          2.08312        0.97895       -1.59934
N          0.41672        2.38518       -0.08793
C          1.65896        1.76303        0.37254
C          2.55450        3.02034        0.38155
C          2.05337        3.77728       -0.84723
O          0.73839        3.27116       -1.11163
H          1.55624        1.43351        1.40769
C          4.06112        2.79877        0.43106
H          2.28364        3.58769        1.28424
H          1.99547        4.86244       -0.68349
H          2.66876        3.57424       -1.73710
O          4.75549        3.99540        0.71123
H          4.29388        2.09405        1.24419
H          4.42180        2.34989       -0.51030
H          4.72699        4.55140       -0.07633
O          2.55497       -1.53105       -1.34369
S          3.96253       -2.30454       -0.84786
O          4.67059       -2.40673       -2.11965
O          4.56637       -1.40244        0.14223
O          3.50216       -3.58250       -0.29296
H         -2.95966       -4.21319        1.26836
H          1.49684       -0.89899        3.67938
H         -0.84036       -3.29479        0.35109
H          1.06940       -2.50739       -1.94637
