62
ZTX_211_solv.log	Energy: -1483142.4425916
C          1.58603        0.86913        1.08028
N          1.85288        1.26428       -0.28050
C          1.29481        0.62874       -1.31007
C          0.42236        1.51174        1.86449
H          2.44327        1.20582        1.67330
N          1.48126        1.05936       -2.54440
H          1.97546        1.93072       -2.71157
H          2.69595        1.82521       -0.45873
N          0.48490       -0.42177       -1.06714
C         -0.94911       -1.46229        0.54796
C         -1.76584       -0.69457       -0.57066
C         -0.78117       -0.65135       -1.74425
O         -1.18796       -2.81815        0.53827
O         -1.23346       -0.88955        1.78152
H         -1.00673        0.15355       -2.45429
H         -0.78411       -1.61412       -2.27454
O          0.55910        1.55137        3.08223
C          1.50454       -0.65289        1.18850
C          0.56479       -1.25494        0.13356
N          1.24451       -2.49861       -0.16576
C          2.55079       -2.39395        0.09860
N          2.77625       -1.31650        0.87565
H          1.18881       -0.92824        2.20357
N          3.46146       -3.24761       -0.31202
C          4.03111       -0.88708        1.41870
H          4.44570       -2.99439       -0.26323
H         -0.95300       -1.50150        2.47683
C         -2.26656        0.70740       -0.18002
O          4.53121        0.23198        0.70477
H          3.88093       -0.53349        2.44451
H          4.75462       -1.71123        1.42797
C          5.06582       -0.00630       -0.50290
O          5.40987       -1.10154       -0.89983
N          5.23604        1.13562       -1.21616
H          5.45050        1.03624       -2.20630
O          4.48616        2.24428       -0.91643
H          5.04192        2.82645       -0.37507
H         -2.96026        0.95821       -0.99081
H         -2.86166        0.63876        0.73834
N         -0.66063        2.02036        1.25218
C         -1.29999        1.89602       -0.05836
C         -2.03154        3.25777       -0.07386
C         -2.45466        3.41545        1.38461
O         -1.61104        2.52859        2.13288
H         -0.54987        1.92053       -0.84970
C         -3.15771        3.41649       -1.08072
H         -1.26182        4.01137       -0.30273
H         -2.32199        4.44188        1.75443
H         -3.49379        3.09682        1.55563
O         -2.73775        3.11318       -2.39385
H         -3.99038        2.73775       -0.84463
H         -3.55367        4.44498       -1.00955
H         -2.03108        3.72682       -2.63020
O         -2.85257       -1.47260       -1.06085
S         -4.25123       -1.82504       -0.23721
O         -4.96037       -0.56567       -0.00295
O         -4.88879       -2.72777       -1.18944
O         -3.78839       -2.47694        1.01057
H          3.18782       -3.98293       -0.95706
H          1.17090        0.50892       -3.33823
H          0.86752       -3.16822       -0.83016
H         -2.14196       -2.92880        0.75430
