62
ZTX_89_solv.log	Energy: -1483138.6345567
C         -1.35996        1.71743        0.44652
N         -0.80812        2.09009        1.72554
C          0.00995        1.29120        2.40724
C         -0.59346        2.04490       -0.85674
H         -2.26668        2.31607        0.30694
N          0.64046        1.72881        3.48130
H          0.60040        2.71115        3.73645
H         -1.07796        2.97998        2.13491
N          0.22794        0.04152        1.95304
C          0.33268       -1.30630       -0.03188
C          1.76813       -0.86964        0.46549
C          1.53860       -0.59106        1.95402
O          0.14643       -2.66916        0.02818
O          0.12901       -0.80739       -1.31165
H          2.30285        0.06947        2.38086
H          1.52270       -1.53614        2.51428
O         -1.28635        2.22271       -1.85194
C         -1.76271        0.24551        0.45091
C         -0.66120       -0.66064        1.02756
N         -1.44652       -1.64951        1.72548
C         -2.69282       -1.23567        1.93760
N         -2.90896       -0.04803        1.32427
H         -1.99737       -0.05802       -0.57741
N         -3.58058       -1.90104        2.64015
C         -4.22755        0.47012        1.08791
H         -4.54207       -1.58755        2.72065
H         -0.58947       -1.30817       -1.72396
C          2.39111        0.33141       -0.26883
O         -4.94137       -0.28625        0.12685
H         -4.81115        0.41898        2.01353
H         -4.15311        1.51789        0.77874
C         -4.85879        0.10559       -1.16457
O         -4.19647        1.03948       -1.55947
N         -5.66376       -0.67568       -1.92277
H         -5.96737       -1.57841       -1.56226
O         -5.47689       -0.62621       -3.27711
H         -6.22322       -0.12036       -3.63143
H          3.42858        0.32511        0.08503
H          2.41870        0.12355       -1.34501
N          0.74765        2.13682       -0.90286
C          1.87887        1.76322       -0.05286
C          2.88666        2.83254       -0.54188
C          2.54754        2.95300       -2.02673
O          1.24531        2.37392       -2.17885
H          1.65934        1.98642        0.99170
C          4.35114        2.56500       -0.26809
H          2.60832        3.76773       -0.03376
H          2.52574        3.99738       -2.36878
H          3.23311        2.37417       -2.66288
O          4.51589        2.38759        1.12286
H          4.69060        1.67755       -0.83113
H          4.93912        3.42432       -0.63784
H          5.43182        2.13527        1.28599
O          2.68692       -1.95768        0.45752
S          3.33219       -2.68860       -0.88772
O          4.11801       -1.68628       -1.60989
O          4.10957       -3.74788       -0.25456
O          2.15211       -3.16503       -1.64755
H         -3.31472       -2.76749        3.09804
H          1.14777        1.08689        4.08164
H         -1.04597       -2.49453        2.12173
H          0.80168       -3.06660       -0.59067
