62
ZTX_26_solv.log	Energy: -1483141.1341842
C         -1.37670        1.21709       -0.63000
N         -1.47856        1.52038        0.77656
C         -0.88796        0.78371        1.71635
C         -0.22893        1.80090       -1.48154
H         -2.24864        1.67339       -1.11045
N         -0.84037        1.20187        2.96784
H         -1.14543        2.14071        3.20670
H         -2.04636        2.31349        1.06119
N         -0.29153       -0.36995        1.35886
C          0.82844       -1.56324       -0.38581
C          1.84122       -0.94519        0.65376
C          0.97743       -0.83044        1.91249
O          0.93397       -2.94356       -0.28477
O          1.00961       -1.12275       -1.68116
H          1.37899       -0.11550        2.64024
H          0.87029       -1.81344        2.39224
O         -0.49855        2.01827       -2.65884
C         -1.45151       -0.28946       -0.86740
C         -0.59754       -1.09579        0.12638
N         -1.46518       -2.22083        0.40096
C         -2.72904       -1.97355        0.04328
N         -2.79628       -0.83082       -0.67004
H         -1.12299       -0.50648       -1.89208
N         -3.75354       -2.74599        0.31677
C         -3.88475       -0.44017       -1.52284
H         -4.69853       -2.36877        0.18671
H          1.93719       -1.35591       -1.89831
C          2.48319        0.40837        0.26860
O         -4.68521        0.58058       -0.95479
H         -3.46708       -0.00636       -2.43815
H         -4.49881       -1.31129       -1.78294
C         -5.67545        0.20193       -0.12579
O         -5.94275       -0.95303        0.14861
N         -6.29576        1.28914        0.37846
H         -6.18896        2.19169       -0.08102
O         -7.48777        1.09232        1.01655
H         -7.30292        1.18124        1.96371
H          3.27217        0.51561        1.02280
H          2.99028        0.30451       -0.69929
N          0.99967        2.01193       -0.98468
C          1.71296        1.73765        0.26260
C          2.65912        2.96008        0.25620
C          2.98718        3.10094       -1.22842
O          1.92101        2.44837       -1.92956
H          1.04086        1.85162        1.11407
C          3.87677        2.91081        1.17121
H          2.05320        3.82286        0.57038
H          3.04190        4.14854       -1.55525
H          3.92320        2.58554       -1.49418
O          4.51599        4.16702        1.24989
H          3.55235        2.65001        2.19027
H          4.58537        2.13329        0.83705
H          4.96899        4.32789        0.41336
O          2.87312       -1.86386        0.96567
S          4.11901       -2.18942       -0.09251
O          5.17719       -1.23865        0.26371
O          4.41502       -3.58243        0.22796
O          3.57088       -1.97222       -1.44978
H         -3.61479       -3.56916        0.89475
H         -0.51706        0.58990        3.70958
H         -1.20572       -2.95348        1.05592
H          0.36229       -3.33183       -0.96248
