62
ZTX_438_solv.log	Energy: -1483138.5048756
C         -1.51706        1.02801       -0.60452
N         -1.63703        1.31385        0.80466
C         -1.01033        0.59926        1.73826
C         -0.41022        1.67983       -1.45545
H         -2.41982        1.44198       -1.06686
N         -1.01062        0.98705        3.00022
H         -1.39088        1.89294        3.25754
H         -2.31267        2.01710        1.09261
N         -0.32810       -0.49966        1.36072
C          0.85716       -1.59378       -0.40530
C          1.83463       -0.92415        0.63639
C          0.97428       -0.87330        1.90151
O          1.05722       -2.96541       -0.32448
O          0.99790       -1.12419       -1.69511
H          1.33079       -0.13230        2.62701
H          0.94161       -1.86197        2.38049
O         -0.69127        1.87290       -2.63461
C         -1.51601       -0.47600       -0.85286
C         -0.59364       -1.23127        0.12244
N         -1.37416       -2.41947        0.39101
C         -2.65485       -2.25796        0.05017
N         -2.82225       -1.10281       -0.62072
H         -1.19618       -0.67270       -1.88412
N         -3.60744       -3.12162        0.31797
C         -4.00738       -0.77964       -1.37292
H         -4.57402       -2.94010        0.06662
H          1.93784       -1.28765       -1.92110
C          2.39014        0.46999        0.26573
O         -5.05998       -0.36420       -0.52484
H         -3.75650       -0.00702       -2.10887
H         -4.38656       -1.66504       -1.89844
C         -5.17577        0.94399       -0.24311
O         -4.50475        1.82545       -0.74633
N         -6.11068        1.18037        0.70524
H         -6.44194        2.13803        0.80325
O         -7.02201        0.21268        1.03397
H         -6.73743       -0.14344        1.88916
H          3.17435        0.61447        1.01878
H          2.89714        0.41463       -0.70617
N          0.79785        1.98317       -0.95625
C          1.53397        1.74365        0.28492
C          2.39172        3.02860        0.29165
C          2.67966        3.24227       -1.19396
O          1.69176        2.47685       -1.89790
H          0.86056        1.79628        1.14192
C          3.62727        3.03300        1.16984
H          1.73521        3.83737        0.64564
H          2.60117        4.29631       -1.49398
H          3.66499        2.85015       -1.48676
O          4.15259        4.34323        1.14288
H          3.34957        2.72850        2.19635
H          4.37011        2.30778        0.79417
H          4.99953        4.33231        1.60250
O          2.92290       -1.78077        0.93321
S          4.18206       -2.01303       -0.13377
O          5.18109       -1.00447        0.23492
O          4.56423       -3.39003        0.16502
O          3.61655       -1.80921       -1.48582
H         -3.39187       -3.96798        0.83570
H         -0.65774        0.37817        3.73122
H         -1.04428       -3.15986        1.00381
H          0.50960       -3.38320       -1.00436
