62
ZTX_41_solv.log	Energy: -1483140.9049047
C          1.38004        1.24288        0.64713
N          1.48454        1.53794       -0.76019
C          0.89440        0.79082       -1.69090
C          0.22534        1.83187        1.48952
H          2.24837        1.70568        1.12836
N          0.85104        1.19067       -2.94855
H          1.16108        2.12450       -3.20037
H          2.05816        2.32435       -1.05163
N          0.29134       -0.35485       -1.31854
C         -0.85121       -1.47784        0.46736
C         -1.85421       -0.88509       -0.59979
C         -0.98416       -0.80112       -1.85726
O         -0.88692       -2.85315        0.51361
O         -1.12023       -0.90456        1.70345
H         -1.37897       -0.09623       -2.59826
H         -0.89501       -1.79535       -2.31679
O          0.48354        2.03428        2.67152
C          1.46231       -0.26289        0.89065
C          0.58590       -1.07457       -0.07897
N          1.43163       -2.21524       -0.34093
C          2.70158       -1.97965       -0.00730
N          2.79901       -0.81336        0.66844
H          1.16450       -0.46381        1.92838
N          3.71213       -2.77586       -0.26750
C          3.90492       -0.42479        1.49970
H          4.66349       -2.40806       -0.15883
H         -0.69293       -1.43969        2.38812
C         -2.50452        0.46379       -0.23364
O          4.71778        0.56571        0.89704
H          3.50658        0.03798        2.40956
H          4.50530       -1.30110        1.77398
C          5.71323        0.14504        0.09481
O          5.93871       -1.02051       -0.17388
N          6.44521        1.19755       -0.32346
H          6.07450        2.14254       -0.24489
O          7.32298        0.98846       -1.34863
H          8.20369        0.95206       -0.94551
H         -3.29902        0.56388       -0.98296
H         -3.00140        0.37055        0.73946
N         -0.99060        2.08407        0.97576
C         -1.71738        1.78543       -0.26013
C         -2.64262        3.02262       -0.27945
C         -2.93831        3.23825        1.20460
O         -1.91310        2.52957        1.91436
H         -1.04813        1.86783       -1.11761
C         -3.87621        2.95086       -1.15727
H         -2.03055        3.86091       -0.64429
H         -2.91159        4.29831        1.49256
H         -3.90236        2.80100        1.50413
O         -4.46680        4.23332       -1.15592
H         -3.58234        2.64138       -2.17778
H         -4.58331        2.19729       -0.76862
H         -5.30674        4.17191       -1.62471
O         -2.87180       -1.81805       -0.94880
S         -4.12331       -2.31781        0.02382
O         -4.94615       -1.14601        0.33008
O         -4.74856       -3.30314       -0.85124
O         -3.45602       -2.89273        1.21541
H          3.55573       -3.61121       -0.82286
H          0.52804        0.56863       -3.68211
H          1.13658       -2.98944       -0.92816
H         -1.79298       -3.09468        0.81414
