62
ZTX_155_solv.log	Energy: -1483141.7886954
C          1.53275        0.93988        1.00425
N          1.78405        1.32221       -0.36375
C          1.29192        0.62987       -1.39167
C          0.32626        1.51404        1.77379
H          2.36109        1.34682        1.59404
N          1.45900        1.06184       -2.62831
H          1.88267        1.96913       -2.79798
H          2.58086        1.94697       -0.54084
N          0.56931       -0.48220       -1.14696
C         -0.79992       -1.62971        0.44278
C         -1.65767       -0.91898       -0.67735
C         -0.66468       -0.83053       -1.84120
O         -1.00764       -2.99573        0.30622
O         -1.06405       -1.18877        1.72365
H         -0.93672       -0.06373       -2.57615
H         -0.57998       -1.80309       -2.34638
O          0.45905        1.59707        2.99018
C          1.54922       -0.58037        1.14772
C          0.69622       -1.27527        0.07625
N          1.48355       -2.46667       -0.17352
C          2.76802       -2.26115        0.14587
N          2.87869       -1.15646        0.90649
H          1.19960       -0.85961        2.15032
N          3.75240       -3.05614       -0.20458
C          4.07607       -0.61393        1.47800
H          4.71619       -2.75196       -0.08973
H         -2.02330       -1.34435        1.85144
C         -2.24648        0.46554       -0.32391
O          4.50934        0.52430        0.75087
H          3.86499       -0.25045        2.48964
H          4.86120       -1.37710        1.52951
C          5.10154        0.30099       -0.43304
O          5.54017       -0.77302       -0.79148
N          5.20950        1.43687       -1.16829
H          5.46449        1.33152       -2.14810
O          4.36716        2.49094       -0.92259
H          4.85592        3.12219       -0.37187
H         -2.92372        0.65060       -1.16663
H         -2.87790        0.37490        0.56929
N         -0.80082        1.89626        1.15318
C         -1.39453        1.73259       -0.17405
C         -2.25382        3.01725       -0.19829
C         -2.69737        3.14692        1.25919
O         -1.80188        2.32198        2.01718
H         -0.62840        1.83289       -0.94467
C         -3.40180        3.07782       -1.19570
H         -1.56424        3.84276       -0.43424
H         -2.63941        4.17998        1.62912
H         -3.71304        2.75687        1.42168
O         -4.06107        4.32409       -1.13314
H         -3.02205        2.86788       -2.21227
H         -4.16109        2.31799       -0.95954
H         -3.42825        5.00883       -1.38250
O         -2.71226       -1.75706       -1.11489
S         -4.07934       -2.00654       -0.19233
O         -3.65437       -1.85398        1.21666
O         -5.02596       -0.97457       -0.62797
O         -4.44142       -3.36828       -0.57508
H          3.56355       -3.83257       -0.83135
H          1.20372        0.48090       -3.42010
H          1.19534       -3.16031       -0.85855
H         -0.54276       -3.43788        1.03056
