62
ZTX_369_solv.log	Energy: -1483136.1457663
C         -1.44200        1.39804       -0.39885
N         -1.35929        1.23613        1.03181
C         -0.66529        0.25362        1.60420
C         -0.40817        2.25649       -1.15906
H         -2.36438        1.95464       -0.59694
N         -0.47120        0.23835        2.90986
H         -0.74532        1.03338        3.47912
H         -1.88102        1.87634        1.62407
N         -0.12200       -0.70003        0.82237
C          0.77801       -1.19302       -1.33677
C          1.91158       -0.92488       -0.27353
C          1.20289       -1.26667        1.04728
O          0.90275       -2.50348       -1.76416
O          0.77044       -0.30151       -2.39653
H          1.68541       -0.81122        1.91835
H          1.14966       -2.35323        1.19539
O         -0.82333        2.80876       -2.17354
C         -1.56265        0.04183       -1.09004
C         -0.57458       -0.99702       -0.53360
N         -1.38597       -2.19773       -0.54424
C         -2.69080       -1.90165       -0.59314
N         -2.86344       -0.59535       -0.88011
H         -1.39556        0.17170       -2.16698
N         -3.66481       -2.76214       -0.41979
C         -4.07428       -0.01202       -1.39241
H         -4.61113       -2.39976       -0.26184
H          1.59938       -0.39379       -2.88830
C          2.50056        0.50454       -0.29103
O         -4.75526        0.76692       -0.42674
H         -3.81187        0.68562       -2.19533
H         -4.73223       -0.79307       -1.79328
C         -5.57126        0.12017        0.42645
O         -5.78758       -1.07679        0.40147
N         -6.07581        0.98921        1.32712
H         -6.05291        1.98873        1.13259
O         -7.12317        0.56296        2.09369
H         -6.75715        0.39186        2.97460
H          3.38312        0.39931        0.35037
H          2.87213        0.70654       -1.30584
N          0.86852        2.36895       -0.76278
C          1.74550        1.73865        0.22534
C          2.68071        2.93853        0.49238
C          2.81474        3.54951       -0.89978
O          1.65745        3.11997       -1.62838
H          1.19572        1.54462        1.14818
C          4.00170        2.65413        1.19575
H          2.11799        3.63375        1.13304
H          2.83915        4.64792       -0.88394
H          3.70242        3.17206       -1.43101
O          4.64005        3.84604        1.60254
H          3.80632        2.06586        2.10536
H          4.66805        2.05619        0.55067
H          4.99897        4.27970        0.81901
O          2.99093       -1.77934       -0.60700
S          3.98445       -2.46903        0.53756
O          3.25063       -3.64476        1.02337
O          5.15920       -2.77656       -0.27548
O          4.18965       -1.43610        1.56648
H         -3.44497       -3.72195       -0.17141
H         -0.05967       -0.56966        3.36548
H         -1.03825       -3.07408       -0.16230
H          0.18908       -2.67921       -2.39445
