62
ZTX_347_solv.log	Energy: -1483138.0001195
C         -1.82057        0.62550        1.04373
N         -1.17098        0.34704        2.29992
C         -0.11572       -0.45957        2.40282
C         -1.36425        1.81754        0.16987
H         -2.84210        0.93529        1.29117
N          0.55225       -0.54872        3.53746
H          0.33702        0.07377        4.31062
H         -1.56007        0.75539        3.14566
N          0.29502       -1.14672        1.31702
C          0.41027       -1.08510       -1.06749
C          1.74916       -0.58625       -0.40860
C          1.70470       -1.28186        0.96124
O          0.62213       -2.27245       -1.74053
O         -0.09063       -0.09720       -1.90173
H          2.34753       -0.80046        1.70529
H          1.98965       -2.33848        0.87492
O         -2.22488        2.32053       -0.55176
C         -1.88253       -0.63292        0.18288
C         -0.55224       -1.40234        0.15195
N         -1.02000       -2.76651        0.13478
C         -2.30983       -2.86806        0.44722
N         -2.84335       -1.64156        0.65075
H         -2.14317       -0.34376       -0.84393
N         -2.94800       -4.01156        0.54911
C         -4.25913       -1.35252        0.64102
H         -3.93436       -4.05501        0.78029
H         -0.71578       -0.50509       -2.51810
C          1.94161        0.93946       -0.33415
O         -4.62903       -0.82191       -0.61508
H         -4.82858       -2.27134        0.80936
H         -4.50505       -0.64000        1.43719
C         -4.81572        0.52407       -0.67414
O         -5.13072        1.21037        0.27272
N         -4.61171        0.96165       -1.93570
H         -4.06812        0.38473       -2.57593
O         -4.50945        2.31265       -2.11577
H         -3.68722        2.56339       -1.64528
H          3.00636        1.05531       -0.10610
H          1.79527        1.34468       -1.34430
N         -0.11187        2.28519        0.19572
C          1.18866        1.81197        0.67748
C          1.84454        3.18926        0.92646
C          1.30801        4.01668       -0.23838
O          0.11432        3.34564       -0.67292
H          1.07997        1.33234        1.65129
C          3.34871        3.24084        1.13663
H          1.39268        3.56415        1.85639
H          1.05419        5.04457        0.05601
H          2.00118        4.03549       -1.08966
O          4.04451        3.10647       -0.08377
H          3.59303        4.20510        1.61669
H          3.62946        2.44359        1.84797
H          4.97738        2.97501        0.11980
O          2.76674       -1.05798       -1.28264
S          4.27146       -1.57436       -0.73924
O          4.05811       -2.97331       -0.35186
O          5.07073       -1.38471       -1.94568
O          4.60093       -0.68473        0.38330
H         -2.44650       -4.88243        0.40436
H          1.26993       -1.25513        3.66297
H         -0.40954       -3.55456       -0.05860
H          1.53796       -2.23556       -2.06923
