62
ZTX_115_solv.log	Energy: -1483138.1184992
C         -1.26515        1.81002        0.25533
N         -0.74402        2.23246        1.53226
C          0.01353        1.44549        2.29411
C         -0.43619        2.01517       -1.03144
H         -2.13462        2.44207        0.04516
N          0.63246        1.92831        3.35591
H          0.62799        2.92654        3.54346
H         -0.96717        3.16644        1.86467
N          0.18131        0.15771        1.93389
C          0.27608       -1.36101        0.08538
C          1.71381       -0.93982        0.57829
C          1.45549       -0.54658        2.03534
O          0.14568       -2.72218        0.32637
O          0.01398       -1.03862       -1.23065
H          2.23977        0.10271        2.44208
H          1.36681       -1.44424        2.66313
O         -1.07805        2.15606       -2.06593
C         -1.73789        0.36219        0.32505
C         -0.71558       -0.55211        1.02240
N         -1.58996       -1.44282        1.75165
C         -2.82376       -0.95130        1.86471
N         -2.94661        0.18586        1.14522
H         -1.91886       -0.00946       -0.69186
N         -3.77475       -1.51349        2.57358
C         -4.21661        0.76289        0.80592
H         -4.72287       -1.15330        2.57838
H          0.72142       -1.48275       -1.74448
C          2.40567        0.19857       -0.20346
O         -4.91624       -0.01146       -0.15163
H         -4.85231        0.80423        1.69693
H         -4.06318        1.78336        0.43986
C         -4.76434        0.32492       -1.44606
O         -4.09317        1.25745       -1.84089
N         -5.49464       -0.46558       -2.26748
H         -5.25859       -0.44155       -3.25755
O         -5.97723       -1.66593       -1.81672
H         -6.93148       -1.54437       -1.70054
H          3.42895        0.15743        0.18722
H          2.46184       -0.06464       -1.26739
N          0.90712        2.04131       -1.02075
C          1.97428        1.66512       -0.09466
C          3.06465        2.64282       -0.59829
C          2.79889        2.69195       -2.10222
O          1.47474        2.17290       -2.28287
H          1.72211        1.96591        0.92174
C          4.49601        2.30788       -0.23632
H          2.82075        3.62177       -0.15963
H          2.84869        3.71402       -2.50352
H          3.47893        2.04165       -2.67155
O          4.58178        2.20982        1.16973
H          4.80620        1.36785       -0.72619
H          5.15281        3.10611       -0.62646
H          5.46666        1.90189        1.39619
O          2.58359       -2.05734        0.61704
S          3.23230       -2.71656       -0.76975
O          4.50622       -2.01694       -0.96518
O          3.35661       -4.12117       -0.39102
O          2.25025       -2.45275       -1.84490
H         -3.57447       -2.35438        3.10645
H          1.09340        1.30845        4.01405
H         -1.24729       -2.24267        2.27636
H         -0.69734       -3.01019       -0.05162
