62
ZTX_95_solv.log	Energy: -1483141.2679880
C          1.53380        0.93089        1.00831
N          1.78293        1.32224       -0.35766
C          1.28486        0.63950       -1.38911
C          0.33232        1.50566        1.78550
H          2.36529        1.33100        1.59831
N          1.44763        1.08015       -2.62324
H          1.87201        1.98788       -2.78866
H          2.58141        1.94554       -0.53231
N          0.56008       -0.47233       -1.15000
C         -0.80280       -1.63573        0.43288
C         -1.66495       -0.91162       -0.67529
C         -0.67723       -0.81209       -1.84248
O         -1.01082       -3.00009        0.28094
O         -1.06233       -1.21038        1.72003
H         -0.95151       -0.03714       -2.56803
H         -0.59630       -1.77924       -2.35854
O          0.47048        1.58443        3.00181
C          1.54660       -0.59033        1.14150
C          0.69180       -1.27623        0.06530
N          1.47928       -2.46464       -0.19755
C          2.76340       -2.26491        0.12615
N          2.87511       -1.16736        0.89691
H          1.19633       -0.87555        2.14218
N          3.74638       -3.05916       -0.22989
C          4.07310       -0.63126        1.47334
H          4.71102       -2.76082       -0.10778
H         -2.02114       -1.36830        1.84932
C         -2.24938        0.47018       -0.30318
O          4.50852        0.51198        0.75540
H          3.86193       -0.27544        2.48767
H          4.85692       -1.39612        1.51934
C          5.10475        0.29728       -0.42817
O          5.54695       -0.77352       -0.79187
N          5.21227        1.43764       -1.15615
H          5.47251        1.33984       -2.13533
O          4.36892        2.48965       -0.90592
H          4.85638        3.11839       -0.35113
H         -2.93878        0.66283       -1.13424
H         -2.86868        0.37098        0.59754
N         -0.79480        1.89556        1.17076
C         -1.39352        1.73565       -0.15395
C         -2.24944        3.02150       -0.17185
C         -2.72178        3.10705        1.27829
O         -1.78527        2.33616        2.04249
H         -0.63064        1.83864       -0.92741
C         -3.35973        3.10567       -1.21230
H         -1.55668        3.85249       -0.37094
H         -2.73574        4.13680        1.66139
H         -3.71499        2.65244        1.41601
O         -3.89001        4.41086       -1.30345
H         -2.94406        2.85778       -2.20113
H         -4.15722        2.37486       -0.99315
H         -4.43932        4.56966       -0.52656
O         -2.72258       -1.74383       -1.11673
S         -4.08464       -2.00369       -0.19004
O         -5.03399       -0.96832       -0.61137
O         -4.44749       -3.36217       -0.58335
O         -3.65342       -1.86376        1.21850
H          3.55684       -3.82943       -0.86400
H          1.18796        0.50498       -3.41783
H          1.18973       -3.15306       -0.88723
H         -0.54397       -3.45006        0.99923
