62
ZTX_424_solv.log	Energy: -1483137.8503518
C         -1.52144        1.09857        1.14119
N         -0.78615        0.87296        2.36135
C          0.21246       -0.00354        2.44010
C         -1.01957        2.15078        0.12507
H         -2.48023        1.54285        1.42908
N          1.01049       -0.02473        3.49150
H          0.95093        0.70522        4.19521
H         -1.02848        1.41613        3.18537
N          0.42959       -0.83896        1.40294
C          0.24145       -1.17727       -0.95098
C          1.67522       -0.67849       -0.55186
C          1.76620       -1.15199        0.90721
O          0.30329       -2.49578       -1.36795
O         -0.29698       -0.35407       -1.92604
H          2.53620       -0.62489        1.48101
H          1.96427       -2.23012        0.95350
O         -1.87471        2.68045       -0.57338
C         -1.81285       -0.22333        0.44196
C         -0.58687       -1.15944        0.40038
N         -1.19838       -2.43966        0.66659
C         -2.45253       -2.33091        1.09371
N         -2.82625       -1.03191        1.13614
H         -2.14536       -0.01690       -0.58462
N         -3.20723       -3.35479        1.42138
C         -4.19209       -0.61127        1.26104
H         -4.17831       -3.23912        1.68954
H         -1.02885       -0.82611       -2.34997
C          1.91849        0.82622       -0.76017
O         -4.90093       -0.76281        0.04496
H         -4.69955       -1.22691        2.01152
H         -4.22332        0.43252        1.59125
C         -5.10350        0.34492       -0.70594
O         -4.73819        1.45954       -0.40603
N         -5.82038        0.01328       -1.80663
H         -5.84560       -0.95759       -2.11236
O         -5.86789        0.93711       -2.81517
H         -6.75125        1.33264       -2.77408
H          2.99723        0.89465       -0.91936
H          1.45454        1.12776       -1.70754
N          0.27629        2.51057        0.06478
C          1.54073        1.83049        0.33635
C          2.46528        3.05825        0.39276
C          1.89987        3.91448       -0.73325
O          0.53007        3.50729       -0.88242
H          1.53576        1.40312        1.33720
C          3.95897        2.76319        0.32082
H          2.25823        3.55088        1.35483
H          1.92578        4.98994       -0.51079
H          2.41009        3.72621       -1.69067
O          4.33852        1.77697        1.25805
H          4.25150        2.47097       -0.70187
H          4.50757        3.69055        0.54868
H          4.36653        0.91699        0.80546
O          2.55140       -1.36083       -1.44045
S          4.11740       -1.77599       -1.00574
O          3.97537       -3.02195       -0.24831
O          4.73757       -1.91073       -2.31767
O          4.61035       -0.64568       -0.19778
H         -2.82075       -4.29331        1.39416
H          1.68416       -0.77347        3.61598
H         -0.71402       -3.31876        0.51402
H          1.16685       -2.60473       -1.80295
