62
ZTX_121_solv.log	Energy: -1483139.3112566
C          1.03103       -2.02144        0.14806
N          0.60135       -2.36743        1.48011
C         -0.03742       -1.50485        2.26783
C          0.08396       -2.22259       -1.05782
H          1.83800       -2.71476       -0.11065
N         -0.58988       -1.90427        3.39864
H         -0.62882       -2.89201        3.63187
H          0.79935       -3.30000        1.83159
N         -0.15927       -0.22497        1.86625
C         -0.33694        1.20613       -0.05348
C         -1.74639        0.91222        0.59889
C         -1.37391        0.55793        2.04210
O          0.01500        2.53508        0.03161
O         -0.34119        0.75036       -1.36474
H         -2.15625       -0.01929        2.54882
H         -1.17511        1.47565        2.61277
O          0.63417       -2.45758       -2.12855
C          1.59388       -0.60449        0.11627
C          0.69242        0.40199        0.85538
N          1.67165        1.26289        1.47120
C          2.89328        0.73685        1.45116
N          2.87834       -0.45673        0.81136
H          1.71676       -0.30211       -0.93219
N          3.95498        1.29248        1.99065
C          4.04922       -1.19157        0.43522
H          4.88674        1.00599        1.67159
H          0.41051        1.14569       -1.83040
C         -2.58560       -0.18143       -0.08882
O          4.60246       -0.75064       -0.79469
H          4.79339       -1.13623        1.23890
H          3.77928       -2.24039        0.28058
C          5.63077        0.11971       -0.74799
O          6.10711        0.57220        0.27692
N          6.01971        0.43766       -1.99847
H          5.74139       -0.14305       -2.78715
O          7.19690        1.11366       -2.14395
H          6.95798        2.03722       -2.31637
H         -3.58311       -0.06728        0.35017
H         -2.69179        0.06375       -1.15239
N         -1.25194       -2.13913       -0.94834
C         -2.22526       -1.66977        0.04027
C         -3.38862       -2.62135       -0.33134
C         -3.26084       -2.71665       -1.85098
O         -1.92435       -2.29211       -2.15541
H         -1.90629       -1.94550        1.04621
C         -4.77984       -2.30161        0.18953
H         -3.11612       -3.59436        0.10247
H         -3.41068       -3.74130       -2.22026
H         -3.94405       -2.03244       -2.37053
O         -5.37222       -1.25255       -0.54466
H         -5.39032       -3.21911        0.11535
H         -4.70279       -2.04956        1.26277
H         -6.20091       -1.01594       -0.11332
O         -2.52659        2.09693        0.72990
S         -3.22268        2.95897       -0.50699
O         -4.19808        2.08953       -1.16640
O         -3.79146        4.07148        0.24582
O         -2.08527        3.33088       -1.38210
H          3.85532        2.19934        2.43699
H         -0.95400       -1.23029        4.06388
H          1.45026        2.18468        1.83425
H         -0.65076        3.03173       -0.49856
