62
ZTX_467_solv.log	Energy: -1483140.6541269
C          1.08653       -1.87894        0.34949
N          0.63603       -2.12894        1.69698
C          0.00362       -1.21253        2.42798
C          0.16798       -2.16327       -0.85952
H          1.89621       -2.58945        0.15372
N         -0.55403       -1.53941        3.57927
H         -0.60769       -2.51199        3.86706
H          0.82798       -3.03605        2.11258
N         -0.10491        0.04460        1.95450
C         -0.24518        1.38673       -0.01756
C         -1.67166        1.09099        0.59704
C         -1.32992        0.83045        2.06722
O          0.03650        2.74476        0.11037
O         -0.09273        0.96493       -1.32181
H         -2.11338        0.27211        2.59271
H         -1.14903        1.77877        2.59221
O          0.74074       -2.47648       -1.89770
C          1.64729       -0.46746        0.22060
C          0.76221        0.59225        0.90689
N          1.75671        1.47075        1.47283
C          2.97791        0.94378        1.44924
N          2.94389       -0.28736        0.88885
H          1.75155       -0.21939       -0.84356
N          4.05448        1.53111        1.92130
C          4.10010       -1.06453        0.55933
H          4.97457        1.22697        1.58414
H         -0.80555        1.40554       -1.82688
C         -2.49588       -0.05300       -0.02819
O          4.62596       -0.74586       -0.72027
H          4.86203       -0.94137        1.33777
H          3.82220       -2.12140        0.50857
C          5.65121        0.11614       -0.77974
O          6.14193        0.67605        0.18867
N          6.06577        0.33963       -2.04275
H          6.95298        0.82120       -2.17344
O          5.69286       -0.49962       -3.05576
H          4.98837       -0.04151       -3.53868
H         -3.48219        0.09040        0.42920
H         -2.61721        0.12883       -1.10376
N         -1.16725       -2.04551       -0.79289
C         -2.14699       -1.53504        0.16510
C         -3.32743       -2.46639       -0.19671
C         -3.16099       -2.64778       -1.70588
O         -1.81546       -2.25014       -2.00334
H         -1.83946       -1.77580        1.18371
C         -4.72480       -2.02692        0.21509
H         -3.12172       -3.42706        0.30067
H         -3.31084       -3.68811       -2.02631
H         -3.82760       -1.98822       -2.28084
O         -5.68459       -2.99975       -0.13716
H         -4.74216       -1.81026        1.29878
H         -5.01388       -1.10698       -0.31412
H         -5.48218       -3.80786        0.35022
O         -2.44242        2.28822        0.57194
S         -3.22568        2.82934       -0.82223
O         -4.53095        2.17122       -0.81492
O         -3.24639        4.26512       -0.56418
O         -2.34611        2.41615       -1.93461
H          3.96666        2.46273        2.31603
H         -0.90813       -0.82392        4.20550
H          1.55216        2.43762        1.70709
H         -0.77656        3.19820        0.38460
