62
ZTX_396_solv.log	Energy: -1483142.2042070
C         -1.59108        0.88630       -0.75219
N         -1.79015        1.19319        0.64345
C         -1.16560        0.52961        1.61504
C         -0.49148        1.59636       -1.56715
H         -2.49649        1.23240       -1.26147
N         -1.26477        0.92043        2.87200
H         -1.72697        1.79501        3.10155
H         -2.57162        1.79854        0.88501
N         -0.38163       -0.51571        1.28580
C          0.96112       -1.47834       -0.44202
C          1.84247       -0.73981        0.65754
C          0.92277       -0.77056        1.88136
O          1.20311       -2.84438       -0.44077
O          1.08908       -0.92450       -1.70597
H          1.17974       -0.00680        2.62483
H          0.95834       -1.76195        2.35451
O         -0.71679        1.72327       -2.76663
C         -1.48665       -0.61925       -0.96021
C         -0.52317       -1.27772        0.04429
N         -1.19304       -2.53303        0.29676
C         -2.48197       -2.47402       -0.03852
N         -2.74471       -1.33289       -0.70531
H         -1.14791       -0.82275       -1.98391
N         -3.36311       -3.40921        0.23492
C         -3.97617       -1.09286       -1.41586
H         -4.33748       -3.31089       -0.02945
H          2.02623       -1.01585       -1.95477
C          2.30950        0.68717        0.30666
O         -5.03860       -0.80578       -0.52843
H         -3.81790       -0.27750       -2.13104
H         -4.29020       -1.99147       -1.96229
C         -5.21123        0.47167       -0.12601
O         -4.58845        1.42203       -0.55079
N         -6.21426        0.52795        0.77760
H         -6.50977       -0.31550        1.26513
O         -6.35933        1.69245        1.47778
H         -7.12584        2.14452        1.09380
H          3.04634        0.91905        1.08421
H          2.86863        0.66939       -0.63844
N          0.64274        2.04338       -1.00554
C          1.34073        1.87759        0.26976
C          2.05333        3.25261        0.30885
C          2.38564        3.49487       -1.16401
O          1.54116        2.60263       -1.90528
H          0.62417        1.86935        1.09273
C          3.20928        3.44381        1.27616
H          1.27855        3.97091        0.61311
H          2.18361        4.53067       -1.47243
H          3.42341        3.23247       -1.40657
O          4.38066        2.81431        0.80505
H          3.37486        4.52912        1.39722
H          2.90897        3.04987        2.26417
H          5.05693        2.89477        1.48702
O          2.97481       -1.51736        1.03142
S          4.27688       -1.74218        0.02604
O          5.09814       -0.53462        0.10399
O          4.87262       -2.94040        0.60541
O          3.65875       -1.95373       -1.30936
H         -3.08159       -4.23333        0.75664
H         -0.90940        0.34016        3.62487
H         -0.79227       -3.26050        0.88096
H          2.10394       -2.95966       -0.79333
