62
ZTX_102_solv.log	Energy: -1483139.7450790
C          0.98453       -1.97455        0.18029
N          0.53991       -2.28863        1.51479
C         -0.06914       -1.39283        2.28887
C          0.03506       -2.15180       -1.02583
H          1.76750       -2.69754       -0.07022
N         -0.63091       -1.75643        3.42688
H         -0.69993       -2.73892        3.67507
H          0.71542       -3.21890        1.88369
N         -0.15220       -0.11684        1.86547
C         -0.29246        1.27486       -0.08563
C         -1.70657        1.04458        0.58195
C         -1.34008        0.70749        2.03083
O          0.10050        2.59410       -0.04349
O         -0.32088        0.77952       -1.38191
H         -2.13762        0.16575        2.55270
H         -1.10895        1.62970        2.58183
O          0.58157       -2.40256       -2.09436
C          1.59285       -0.57791        0.13131
C          0.71582        0.46767        0.84281
N          1.71623        1.31818        1.43954
C          2.92211        0.75490        1.44224
N          2.87271       -0.45628        0.83919
H          1.73686       -0.29800       -0.92080
N          3.99799        1.29329        1.97088
C          4.01029       -1.26973        0.52979
H          4.91929        0.97142        1.65597
H          0.43642        1.13909       -1.86697
C         -2.58709       -0.03697       -0.07238
O          4.58834       -0.95057       -0.72557
H          4.75185       -1.18796        1.33345
H          3.69455       -2.31454        0.45251
C          5.63002       -0.09557       -0.73799
O          6.10116        0.43345        0.25173
N          6.04058        0.11055       -2.00542
H          5.76313       -0.53134       -2.74559
O          7.23642        0.74427       -2.18739
H          7.02314        1.65656       -2.43607
H         -3.56118        0.11335        0.40913
H         -2.72024        0.20066       -1.13465
N         -1.29938       -2.03189       -0.92207
C         -2.26477       -1.53427        0.06044
C         -3.46337       -2.42978       -0.32762
C         -3.31071       -2.55191       -1.84431
O         -1.96442       -2.15427       -2.13586
H         -1.96048       -1.81650        1.06963
C         -4.84894       -1.98509        0.11667
H         -3.27025       -3.41331        0.12871
H         -3.47381       -3.57734       -2.20454
H         -3.97481       -1.86358       -2.38738
O         -5.82649       -2.93302       -0.25458
H         -4.84939       -1.80469        1.20718
H         -5.13170       -1.04404       -0.37754
H         -5.62520       -3.76053        0.19959
O         -2.44784        2.25549        0.68747
S         -3.12740        3.10354       -0.56998
O         -4.13862        2.24707       -1.19216
O         -3.65026        4.25705        0.15314
O         -1.98706        3.40797       -1.46630
H          3.92528        2.21425        2.39288
H         -0.97103       -1.06119        4.08284
H          1.52262        2.25997        1.76503
H         -0.55237        3.09455       -0.58581
