62
ZTX_440_solv.log	Energy: -1483141.6215959
C          1.55030        0.96270        0.83714
N          1.73155        1.31372       -0.55011
C          1.09156        0.68550       -1.53605
C          0.44020        1.62088        1.68295
H          2.44480        1.31457        1.36220
N          1.13470        1.15208       -2.77002
H          1.55700        2.05549       -2.96179
H          2.44294        2.00171       -0.78528
N          0.35178       -0.40081       -1.23886
C         -0.91275       -1.56323        0.41599
C         -1.83958       -0.77192       -0.59148
C         -0.95012       -0.68212       -1.83442
O         -1.10636       -2.92986        0.24049
O         -1.07355       -1.19486        1.73710
H         -1.26007        0.11942       -2.51560
H         -0.94594       -1.63752       -2.37773
O          0.68407        1.74287        2.87888
C          1.47764       -0.55392        0.99901
C          0.55660       -1.22027       -0.03934
N          1.31259       -2.40965       -0.36423
C          2.59949       -2.28158       -0.03591
N          2.76659       -1.20104        0.74990
H          1.13468       -0.79573        2.01334
N          3.55529       -3.10913       -0.39610
C          3.95472       -0.83303        1.46196
H          4.52418       -2.78882       -0.32761
H         -2.02210       -1.33049        1.93498
C         -2.34892        0.61330       -0.15079
O          4.62599        0.23900        0.82275
H          3.67303       -0.45286        2.45008
H          4.61622       -1.69908        1.58404
C          5.38916       -0.06938       -0.23581
O          5.70013       -1.20598       -0.55166
N          5.75247        1.01783       -0.94487
H          6.50922        0.92424       -1.61929
O          5.53990        2.27529       -0.45209
H          4.77653        2.62636       -0.93593
H         -2.85647        0.53319        0.81871
H         -3.12092        0.83003       -0.89802
N         -0.72805        2.01354        1.15196
C         -1.43385        1.84325       -0.11545
C         -2.22500        3.17305       -0.11432
C         -2.55547        3.35674        1.36470
O         -1.63010        2.52385        2.07800
H         -0.73507        1.88749       -0.95026
C         -3.42469        3.24576       -1.03457
H         -1.50988        3.95094       -0.42072
H         -2.43650        4.39738        1.69712
H         -3.56740        3.00560        1.61510
O         -2.98686        2.95493       -2.34514
H         -4.20611        2.53878       -0.70416
H         -3.85884        4.25948       -0.96886
H         -3.76084        2.90827       -2.91773
O         -2.94723       -1.59468       -0.94220
S         -4.29713       -1.75910        0.05652
O         -3.76503       -1.66790        1.43141
O         -5.18983       -0.66139       -0.31270
O         -4.74626       -3.09087       -0.33526
H          3.33502       -3.86053       -1.04265
H          0.76658        0.60904       -3.54419
H          0.96030       -3.11221       -1.00689
H         -1.89925       -3.05251       -0.30513
