62
ZTX_199_solv.log	Energy: -1483141.5075460
C          1.57939        0.97436        0.96153
N          1.84599        1.29681       -0.41892
C          1.32073        0.59413       -1.42256
C          0.40054        1.62808        1.70953
H          2.42479        1.36735        1.53603
N          1.50263        0.98005       -2.67220
H          1.96446        1.86280       -2.86966
H          2.66897        1.87998       -0.61705
N          0.55169       -0.47673       -1.13851
C         -0.84737       -1.53655        0.48333
C         -1.68789       -0.82361       -0.64937
C         -0.69747       -0.79915       -1.81837
O         -1.09664       -2.89855        0.37499
O         -1.09278       -1.06309        1.75638
H         -0.94569       -0.04230       -2.57200
H         -0.64992       -1.78658       -2.29892
O          0.54413        1.76333        2.92042
C          1.53368       -0.53865        1.15905
C          0.65796       -1.23661        0.10686
N          1.40831       -2.45873       -0.10937
C          2.69731       -2.28884        0.21097
N          2.84205       -1.17169        0.94695
H          1.16897       -0.76858        2.16871
N          3.65632       -3.12450       -0.11597
C          4.05466       -0.65219        1.50719
H          4.62877       -2.84059       -0.01913
H         -2.05558       -1.19053        1.89023
C         -2.22768        0.58686       -0.32220
O          4.53415        0.44201        0.74138
H          3.84936       -0.24347        2.50261
H          4.81122       -1.44057        1.59312
C          5.13348        0.15305       -0.42385
O          5.54423       -0.94752       -0.73230
N          5.28461        1.25226       -1.20594
H          5.54323        1.09256       -2.17764
O          4.46814        2.33808       -1.01916
H          4.98199        2.99948       -0.53041
H         -2.93707        0.77965       -1.13505
H         -2.82681        0.54364        0.59607
N         -0.71492        2.01964        1.07600
C         -1.32263        1.82176       -0.24033
C         -2.09796        3.16000       -0.33071
C         -2.52180        3.39798        1.11977
O         -1.69308        2.53742        1.91451
H         -0.55724        1.84699       -1.01732
C         -3.21035        3.27988       -1.35940
H         -1.34539        3.91409       -0.60202
H         -2.37141        4.44136        1.43218
H         -3.56209        3.10247        1.30576
O         -4.37392        2.60620       -0.93191
H         -3.41886        4.35365       -1.51287
H         -2.84347        2.88046       -2.32216
H         -5.00243        2.60154       -1.66233
O         -2.76974       -1.63929       -1.06320
S         -4.13298       -1.84448       -0.12575
O         -5.06945       -0.81498       -0.58631
O         -4.51438       -3.21291       -0.46523
O         -3.69908       -1.65616        1.27632
H          3.44254       -3.90679       -0.72725
H          1.22320        0.38612       -3.44595
H          1.09974       -3.15965       -0.77778
H         -0.64037       -3.34063        1.10477
