62
ZTX_86_solv.log	Energy: -1483145.2470067
C          1.38811        1.21707        0.66119
N          1.47786        1.55462       -0.73845
C          0.83347        0.87242       -1.68318
C          0.28040        1.82747        1.54832
H          2.28500        1.62767        1.13723
N          0.77577        1.32570       -2.92197
H          1.12527        2.25266       -3.14568
H          2.07334        2.33063       -1.01321
N          0.19282       -0.26241       -1.34090
C         -0.90881       -1.47232        0.40070
C         -1.94000       -0.78194       -0.59018
C         -1.11159       -0.64206       -1.86863
O         -0.97418       -2.85494        0.29845
O         -1.03329       -1.03618        1.71009
H         -1.50766        0.12583       -2.54448
H         -1.06614       -1.60357       -2.39874
O          0.58178        2.01093        2.72342
C          1.41235       -0.29790        0.85519
C          0.50820       -1.04495       -0.14537
N          1.33481       -2.18020       -0.48428
C          2.60773       -2.00053       -0.13051
N          2.73213       -0.88262        0.61668
H          1.09461       -0.53250        1.87906
N          3.59748       -2.80563       -0.43809
C          3.83909       -0.58008        1.48108
H          4.55946       -2.47711       -0.29645
H         -1.93150       -1.28547        1.99657
C         -2.52988        0.56652       -0.12971
O          4.70043        0.40584        0.94021
H          3.44346       -0.14636        2.40609
H          4.40047       -1.49184        1.72030
C          5.70406       -0.01530        0.14902
O          5.89669       -1.17588       -0.16405
N          6.48519        1.02607       -0.20220
H          6.14930        1.98055       -0.08962
O          7.38450        0.82879       -1.21090
H          8.25010        0.73375       -0.78510
H         -3.35441        0.72120       -0.83436
H         -2.98346        0.45678        0.86438
N         -0.94564        2.10530        1.07775
C         -1.70325        1.86108       -0.14808
C         -2.58344        3.13255       -0.12266
C         -2.86192        3.30535        1.36724
O         -1.83103        2.57062        2.04350
H         -1.05314        1.93925       -1.01905
C         -3.82397        3.12209       -0.99998
H         -1.93380        3.95545       -0.45961
H         -2.82484        4.35607        1.68658
H         -3.82560        2.86554        1.66502
O         -3.52283        2.79906       -2.34068
H         -4.54599        2.37266       -0.64374
H         -4.32050        4.10527       -0.92198
H         -2.93569        3.48112       -2.68977
O         -3.00632       -1.65985       -0.93525
S         -4.20322       -2.07465        0.13856
O         -5.13149       -0.94650        0.21138
O         -4.73361       -3.27950       -0.48728
O         -3.46672       -2.31992        1.40618
H          3.42045       -3.60760       -1.03468
H          0.41439        0.74523       -3.67156
H          1.02099       -2.91545       -1.11035
H         -1.83031       -3.11769        0.67924
