62
ZTX_333_solv.log	Energy: -1483135.6036859
C         -1.37335        1.47238        0.96736
N         -0.63227        1.38303        2.20209
C          0.32683        0.47838        2.38991
C         -0.84060        2.34153       -0.19457
H         -2.31325        1.98452        1.19849
N          1.11148        0.53551        3.45044
H          1.06131        1.33030        4.08076
H         -0.87178        2.01067        2.96441
N          0.52063       -0.46182        1.44583
C          0.33533       -0.96741       -0.88610
C          1.82351       -0.63154       -0.45460
C          1.83432       -0.95683        1.05150
O          0.22079       -2.22816       -1.43888
O         -0.20347       -0.05182       -1.76968
H          2.63360       -0.43230        1.58861
H          1.91463       -2.03069        1.25699
O         -1.68920        2.82559       -0.93490
C         -1.70890        0.07849        0.44610
C         -0.48691       -0.85424        0.46323
N         -1.09594       -2.11098        0.82705
C         -2.30352       -1.94150        1.36129
N         -2.67609       -0.64353        1.28762
H         -2.09301        0.15908       -0.57800
N         -3.02303       -2.91227        1.87533
C         -4.03084       -0.20908        1.48562
H         -3.96776       -2.75849        2.21057
H          0.30050       -0.08518       -2.59492
C          2.26652        0.82244       -0.71816
O         -4.89904       -0.64282        0.45448
H         -4.42493       -0.63983        2.41265
H         -4.04768        0.88280        1.57210
C         -5.00369        0.14268       -0.64097
O         -4.43380        1.20205       -0.78443
N         -5.80108       -0.46236       -1.55191
H         -6.43521       -1.19997       -1.25089
O         -6.25339        0.30462       -2.59009
H         -5.74479        0.02765       -3.36677
H          3.34893        0.77279       -0.54454
H          2.13596        1.03427       -1.78874
N          0.47207        2.55367       -0.38867
C          1.73547        2.00817        0.10193
C          2.59596        3.28413       -0.05412
C          2.06804        3.85835       -1.36384
O          0.75340        3.30656       -1.52584
H          1.67451        1.79535        1.16933
C          4.10706        3.13332        0.00831
H          2.29641        3.94864        0.77017
H          2.66761        3.54253       -2.23121
H          1.99990        4.95499       -1.34729
O          4.54695        2.65489        1.26147
H          4.47571        2.50358       -0.81993
H          4.55511        4.12866       -0.13028
H          4.35884        1.71032        1.31891
O          2.71819       -1.37690       -1.27073
S          3.43798       -2.79511       -0.80964
O          4.16000       -3.15175       -2.02321
O          4.26846       -2.47291        0.35291
O          2.29351       -3.68460       -0.48695
H         -2.64228       -3.85277        1.91463
H          1.74289       -0.22692        3.67332
H         -0.60101       -2.99819        0.80644
H          0.90721       -2.84223       -1.09537
