62
ZTX_96_solv.log	Energy: -1483145.5225085
C          1.45568        1.02537        0.94786
N          1.67748        1.40855       -0.42460
C          1.08636        0.78197       -1.44137
C          0.29154        1.63442        1.75877
H          2.31755        1.39152        1.51609
N          1.16560        1.26418       -2.66746
H          1.57897        2.17659       -2.83417
H          2.38000        2.11625       -0.62408
N          0.35808       -0.32181       -1.18411
C         -0.94833       -1.48062        0.44718
C         -1.85267       -0.74006       -0.62987
C         -0.90944       -0.63313       -1.83049
O         -1.09796       -2.85675        0.36596
O         -1.14059       -1.00682        1.73584
H         -1.20828        0.15621       -2.53078
H         -0.86163       -1.59280       -2.36409
O          0.47729        1.72262        2.96769
C          1.42263       -0.49619        1.07370
C          0.52744       -1.15297        0.00902
N          1.29133       -2.33972       -0.30972
C          2.57577       -2.19183        0.02626
N          2.72526       -1.11085        0.81663
H          1.07717       -0.77068        2.07870
N          3.54619       -3.00160       -0.33254
C          3.88748       -0.77570        1.58862
H          4.50778       -2.66202       -0.25662
H         -2.07371       -1.17841        1.95667
C         -2.41167        0.63461       -0.21398
O          4.58803        0.32300        1.03445
H          3.56940       -0.44459        2.58348
H          4.54351       -1.64847        1.69204
C          5.38063        0.06956       -0.02416
O          5.62702       -1.04214       -0.44877
N          5.88846        1.22627       -0.50241
H          5.42812        2.10645       -0.27702
O          6.50238        1.18221       -1.72252
H          7.45349        1.24217       -1.54703
H         -3.13648        0.85131       -1.00729
H         -2.98482        0.53960        0.71799
N         -0.85452        2.03649        1.18474
C         -1.51746        1.87833       -0.10901
C         -2.33157        3.19475       -0.10461
C         -2.70790        3.34373        1.36819
O         -1.80586        2.49338        2.08962
H         -0.79287        1.95398       -0.91956
C         -3.50774        3.26822       -1.05468
H         -1.62221        3.99095       -0.37504
H         -2.60063        4.37698        1.72717
H         -3.72652        2.98673        1.57986
O         -3.03254        3.02076       -2.36121
H         -4.28305        2.53808       -0.76277
H         -3.96346        4.27144       -0.97379
H         -3.79235        2.96476       -2.95180
O         -2.92503       -1.56327       -1.07332
S         -4.23339       -1.91292       -0.11221
O         -5.11311       -0.74404       -0.13725
O         -4.75663       -3.10164       -0.77376
O         -3.62994       -2.17150        1.22150
H          3.34321       -3.75822       -0.97867
H          0.83376        0.72432       -3.45983
H          0.97150       -3.01632       -0.99660
H         -1.99826       -3.04897        0.68427
