62
ZTX_122_solv.log	Energy: -1483143.5813770
C          1.09293       -1.91466        0.10013
N          0.63095       -2.31164        1.40721
C         -0.05223       -1.49380        2.20551
C          0.19553       -2.10880       -1.14331
H          1.92833       -2.57671       -0.14965
N         -0.62399       -1.94714        3.30604
H         -0.64370       -2.94353        3.50210
H          0.84216       -3.25050        1.73369
N         -0.19595       -0.20267        1.84608
C         -0.33242        1.29301       -0.01732
C         -1.76640        0.93324        0.56208
C         -1.44218        0.53647        2.00452
O         -0.03880        2.63517        0.17708
O         -0.16403        0.90557       -1.33678
H         -2.22375       -0.08758        2.45449
H         -1.29721        1.43583        2.61909
O          0.78717       -2.30058       -2.19991
C          1.61707       -0.48362        0.12807
C          0.67245        0.47345        0.88221
N          1.61730        1.32980        1.55664
C          2.84967        0.82785        1.55471
N          2.87986       -0.33468        0.86356
H          1.75046       -0.12918       -0.90185
N          3.88072        1.37829        2.15503
C          4.07308       -1.04444        0.51447
H          4.82852        1.12336        1.85561
H         -0.82897        1.39324       -1.85573
C         -2.54697       -0.16636       -0.18571
O          4.67382       -0.55576       -0.67572
H          4.78139       -1.00926        1.35062
H          3.82273       -2.08981        0.31125
C          5.69481        0.30473       -0.55110
O          6.11006        0.73551        0.51412
N          6.25498        0.61999       -1.73507
H          6.89499        1.41087       -1.76707
O          5.63069        0.30801       -2.91003
H          6.09556       -0.46505       -3.26486
H         -3.54695       -0.09490        0.25750
H         -2.65256        0.10499       -1.24481
N         -1.14506       -2.06040       -1.07740
C         -2.15406       -1.64775       -0.10173
C         -3.29653       -2.59430       -0.54604
C         -3.10482       -2.65964       -2.06078
O         -1.77579       -2.18178       -2.30909
H         -1.85776       -1.95202        0.90177
C         -4.69939       -2.21629       -0.12081
H         -3.06133       -3.57778       -0.11282
H         -3.20439       -3.68195       -2.45209
H         -3.79180       -1.99221       -2.60117
O         -4.72060       -2.11256        1.28713
H         -5.00390       -1.26898       -0.60024
H         -5.39563       -2.99602       -0.47856
H         -5.59034       -1.79155        1.55138
O         -2.59228        2.08721        0.67636
S         -3.24140        2.85447       -0.64554
O         -4.38600        2.05926       -1.09018
O         -3.57002        4.15660       -0.07892
O         -2.12142        2.87800       -1.62247
H          3.74645        2.26270        2.63602
H         -1.02428       -1.30692        3.98398
H          1.36473        2.22601        1.96100
H         -0.62786        3.13288       -0.41761
