62
ZTX_228_solv.log	Energy: -1483140.7871400
C          1.57984        0.95142        0.97869
N          1.84276        1.29626       -0.39691
C          1.31317        0.61065       -1.41017
C          0.40099        1.59226        1.73782
H          2.42578        1.33642        1.55793
N          1.48971        1.01725       -2.65405
H          1.94930        1.90383       -2.83909
H          2.66381        1.88490       -0.58710
N          0.54512       -0.46476       -1.14127
C         -0.84975       -1.54416        0.47139
C         -1.69307       -0.81360       -0.64831
C         -0.70699       -0.77719       -1.82092
O         -1.10344       -2.90405        0.34717
O         -1.08782       -1.08665        1.75158
H         -0.95647       -0.01103       -2.56460
H         -0.66231       -1.75878       -2.31356
O          0.54189        1.70327        2.95171
C          1.53632       -0.56452        1.15078
C          0.65439       -1.24348        0.09213
N          1.40032       -2.46388       -0.14691
C          2.69140       -2.30163        0.16903
N          2.84283       -1.19468        0.91898
H          1.17732       -0.81207        2.15835
N          3.64573       -3.13558       -0.17481
C          4.05866       -0.69103        1.48689
H          4.62050       -2.86425       -0.06967
H         -2.05048       -1.21352        1.88807
C         -2.22544        0.59463       -0.30121
O          4.53615        0.42123        0.74699
H          3.85846       -0.30697        2.49314
H          4.81421       -1.48263        1.55001
C          5.12729        0.16289       -0.42994
O          5.53269       -0.92951       -0.77186
N          5.27750        1.28510       -1.17899
H          5.53466        1.15839       -2.15571
O          4.46588        2.36783       -0.95406
H          4.96789        2.98977       -0.40462
H         -2.94368        0.80325       -1.10163
H         -2.81507        0.54053        0.62287
N         -0.70798        2.00575        1.10804
C         -1.31676        1.82706       -0.21095
C         -2.09266        3.16234       -0.27311
C         -2.57867        3.31095        1.16531
O         -1.68078        2.52209        1.95946
H         -0.55345        1.86463       -0.98963
C         -3.13596        3.36374       -1.36962
H         -1.32809        3.93300       -0.45429
H         -2.54907        4.35231        1.51503
H         -3.58852        2.90239        1.31797
O         -4.31086        2.59124       -1.26744
H         -3.38109        4.43950       -1.40392
H         -2.67331        3.10984       -2.33543
H         -4.82644        2.90029       -0.51341
O         -2.78026       -1.62028       -1.06586
S         -4.13854       -1.83091       -0.12237
O         -5.07225       -0.78946       -0.56103
O         -4.52980       -3.19223       -0.47849
O         -3.69493       -1.66485        1.27975
H          3.42600       -3.91102       -0.79264
H          1.20689        0.43605       -3.43616
H          1.08608       -3.15420       -0.82361
H         -0.64667       -3.35543        1.07097
