62
ZTX_78_solv.log	Energy: -1483144.5378018
C          1.53802        0.93876        1.01749
N          1.79501        1.32285       -0.34856
C          1.29946        0.63275       -1.37553
C          0.32890        1.51805        1.77972
H          2.36484        1.34182        1.61195
N          1.47433        1.05841       -2.61324
H          1.90853        1.96045       -2.78438
H          2.59929        1.93856       -0.52489
N          0.56426       -0.47044       -1.12832
C         -0.81102       -1.57862        0.48144
C         -1.66848       -0.88314       -0.66546
C         -0.66811       -0.81063       -1.82301
O         -0.95906       -2.95713        0.44948
O         -1.05451       -1.05491        1.74125
H         -0.93119       -0.04873       -2.56633
H         -0.59148       -1.78882       -2.31849
O          0.45647        1.60154        2.99636
C          1.54835       -0.58230        1.15846
C          0.68001       -1.26788        0.09299
N          1.44897       -2.46752       -0.16050
C          2.73564       -2.28180        0.15135
N          2.86917       -1.17028        0.90064
H          1.20706       -0.86043        2.16395
N          3.70480       -3.09819       -0.19481
C          4.07703       -0.63896        1.45986
H          4.67498       -2.81569       -0.08278
H         -1.99538       -1.21578        1.93341
C         -2.26296        0.49772       -0.32505
O          4.51355        0.49567        0.72882
H          3.87914       -0.27285        2.47324
H          4.85603       -1.40869        1.50464
C          5.09161        0.26760       -0.46107
O          5.51372       -0.81056       -0.82606
N          5.20669        1.40434       -1.19476
H          5.44822        1.29744       -2.17781
O          4.37810        2.46719       -0.93867
H          4.87848        3.09143       -0.39039
H         -2.93226        0.69081       -1.17256
H         -2.90488        0.41596        0.56234
N         -0.79345        1.90980        1.15458
C         -1.39217        1.75353       -0.17103
C         -2.23003        3.05131       -0.19439
C         -2.66902        3.18880        1.26467
O         -1.79455        2.33725        2.01794
H         -0.62727        1.84172       -0.94451
C         -3.36732        3.12299       -1.19422
H         -1.53193        3.86716       -0.43347
H         -2.58311        4.21929        1.63664
H         -3.69390        2.82459        1.42831
O         -3.87795        4.43863       -1.15124
H         -2.98776        2.86862       -2.20160
H         -4.15336        2.39157       -0.93723
H         -4.67418        4.46483       -1.69349
O         -2.71163       -1.73101       -1.13116
S         -4.06351       -2.05701       -0.22278
O         -4.95399       -0.90265       -0.34454
O         -4.53897       -3.28034       -0.85667
O         -3.52530       -2.24860        1.14950
H          3.49936       -3.87465       -0.81617
H          1.21555        0.47780       -3.40409
H          1.12968       -3.18984       -0.79925
H         -1.87329       -3.13690        0.73452
