62
ZTX_99_solv.log	Energy: -1483140.5769620
C         -1.60604        0.80693       -0.68304
N         -1.74286        1.17010        0.70669
C         -1.02220        0.59963        1.67051
C         -0.58401        1.52470       -1.58791
H         -2.55117        1.09166       -1.15880
N         -1.03490        1.08068        2.89976
H         -1.50327        1.95868        3.10191
H         -2.48328        1.81868        0.96222
N         -0.23161       -0.44434        1.35261
C          1.02327       -1.55091       -0.35618
C          1.94781       -0.70308        0.59963
C          1.11449       -0.63546        1.88230
O          1.36152       -2.88431       -0.16647
O          1.09275       -1.18163       -1.68415
H          1.40775        0.19753        2.53251
H          1.19589       -1.57849        2.44098
O         -0.89135        1.61613       -2.77231
C         -1.45164       -0.70289       -0.83034
C         -0.44556       -1.29006        0.17861
N         -1.10089       -2.52399        0.55432
C         -2.39529       -2.51537        0.22780
N         -2.68447       -1.44180       -0.53104
H         -1.12466       -0.93582       -1.85165
N         -3.25419       -3.44186        0.58669
C         -3.90375       -1.31287       -1.29046
H         -4.23640       -3.37878        0.33993
H          2.04085       -1.27157       -1.91926
C          2.34184        0.70634        0.10561
O         -4.99362       -0.95145       -0.46641
H         -3.74553       -0.58071       -2.09090
H         -4.18180       -2.27662       -1.73504
C         -5.22273        0.36078       -0.24357
O         -4.66974        1.26968       -0.82524
N         -6.13449        0.49600        0.74606
H         -6.72091       -0.29640        1.00153
O         -6.71955        1.72367        0.89033
H         -6.31679        2.12069        1.67708
H          3.14465        0.97840        0.80020
H          2.79513        0.63835       -0.89156
N          0.57583        2.00818       -1.11572
C          1.35731        1.88214        0.11277
C          2.06435        3.25783        0.07152
C          2.30282        3.46046       -1.42264
O          1.39535        2.57027       -2.08757
H          0.70169        1.88602        0.98283
C          3.30565        3.40739        0.92438
H          1.32068        3.99096        0.41786
H          2.10143        4.49148       -1.74541
H          3.32028        3.17359       -1.72691
O          2.96060        3.09694        2.25785
H          4.11015        2.74839        0.55246
H          3.67244        4.44555        0.83350
H          3.76662        3.10713        2.78635
O          3.12568       -1.41929        0.92860
S          4.37993       -1.59692       -0.15386
O          5.26787       -0.45808        0.10265
O          4.92016       -2.89527        0.23814
O          3.76533       -1.56660       -1.49936
H         -2.94683       -4.21970        1.16231
H         -0.60481        0.56800        3.66283
H         -0.69765       -3.16823        1.22882
H          0.83179       -3.41276       -0.78017
