62
ZTX_148_solv.log	Energy: -1483142.9080028
C          0.98720       -1.99018       -0.01922
N          0.51316       -2.43416        1.26879
C         -0.13369       -1.63468        2.11523
C          0.08511       -2.09172       -1.27057
H          1.79707       -2.66967       -0.30393
N         -0.71770       -2.12689        3.19254
H         -0.78791       -3.13123        3.32644
H          0.68772       -3.39679        1.54385
N         -0.22682       -0.32024        1.83024
C         -0.30467        1.30773        0.08210
C         -1.74774        0.94461        0.61261
C         -1.44839        0.45365        2.03212
O         -0.01076        2.62730        0.41669
O         -0.12651        1.08126       -1.26715
H         -2.25358       -0.16986        2.43885
H         -1.27587        1.30547        2.70478
O          0.66924       -2.26265       -2.33519
C          1.56206       -0.58151        0.07585
C          0.67108        0.37031        0.89955
N          1.65952        1.13642        1.61751
C          2.87489        0.60031        1.54433
N          2.84683       -0.52070        0.78746
H          1.68793       -0.17534       -0.93607
N          3.94002        1.08754        2.13980
C          4.00440       -1.24819        0.36092
H          4.87046        0.82482        1.79723
H         -0.81975        1.60560       -1.71649
C         -2.56324       -0.08069       -0.19827
O          4.59043       -0.71060       -0.81419
H          4.73748       -1.29004        1.17548
H          3.71098       -2.27039        0.10472
C          5.63871        0.12369       -0.66990
O          6.10175        0.47357        0.40037
N          6.06627        0.53701       -1.87958
H          5.79748        0.02777       -2.71935
O          7.26424        1.18949       -1.93869
H          7.05320        2.12913       -2.04870
H         -3.56195        0.00880        0.24439
H         -2.64500        0.25124       -1.24075
N         -1.25055       -1.97503       -1.20234
C         -2.23423       -1.57831       -0.19598
C         -3.41905       -2.44517       -0.68749
C         -3.25027       -2.40394       -2.20406
O         -1.88889       -2.01534       -2.43578
H         -1.94792       -1.95364        0.78600
C         -4.79855       -2.04628       -0.20850
H         -3.21525       -3.46636       -0.33252
H         -3.43337       -3.37972       -2.67515
H         -3.88984       -1.64368       -2.67643
O         -4.78688       -2.03977        1.20343
H         -5.07653       -1.05748       -0.61461
H         -5.53082       -2.77325       -0.60322
H         -5.63980       -1.71104        1.50958
O         -2.50304        2.14383        0.75197
S         -3.25162        2.89268       -0.56206
O         -4.56589        2.26171       -0.67063
O         -3.25736        4.27726       -0.10179
O         -2.35825        2.62884       -1.70843
H          3.84643        1.94396        2.67770
H         -1.09341       -1.51058        3.90576
H          1.45429        2.04671        2.01797
H         -0.82772        3.04800        0.72942
