62
ZTX_225_solv.log	Energy: -1483139.2285446
C         -1.49115        1.39271        0.70035
N         -1.01792        1.53453        2.05519
C         -0.22519        0.63648        2.63669
C         -0.67966        1.95847       -0.48384
H         -2.41391        1.97901        0.62025
N          0.32753        0.88679        3.80914
H          0.24708        1.80737        4.23034
H         -1.32719        2.33615        2.59791
N          0.05257       -0.51566        1.99204
C          0.33999       -1.43998       -0.20065
C          1.72837       -1.06353        0.47312
C          1.38558       -1.10498        1.96470
O          0.23099       -2.81114       -0.38338
O          0.08758       -0.73567       -1.36585
H          2.09077       -0.53193        2.57761
H          1.36467       -2.14580        2.31575
O         -1.33147        2.26932       -1.47505
C         -1.83017       -0.06304        0.40807
C         -0.73950       -1.03565        0.87607
N         -1.53974       -2.16326        1.29060
C         -2.81650       -1.83106        1.47551
N         -3.02060       -0.54173        1.12160
H         -1.98020       -0.18900       -0.67310
N         -3.72474       -2.65206        1.94901
C         -4.30725        0.04101        0.85704
H         -4.69783       -2.38133        2.03948
H          0.80287       -0.96071       -1.98750
C          2.34998        0.28159        0.04564
O         -4.62618       -0.09051       -0.51484
H         -5.07705       -0.47336        1.44071
H         -4.30363        1.09856        1.14370
C         -4.65421        1.03067       -1.26435
O         -4.57864        2.16104       -0.82433
N         -4.74532        0.75457       -2.58388
H         -5.01333        1.51316       -3.20716
O         -5.06470       -0.50401       -3.01510
H         -4.23611       -0.89689       -3.32899
H          3.34370        0.24820        0.50964
H          2.51650        0.27723       -1.04007
N          0.65579        2.08441       -0.44109
C          1.74531        1.64099        0.42932
C          2.72594        2.80739        0.17317
C          2.47911        3.13143       -1.30190
O          1.21961        2.52768       -1.63004
H          1.43605        1.69281        1.47421
C          4.18367        2.57826        0.52099
H          2.37183        3.65008        0.78525
H          2.42546        4.21205       -1.49396
H          3.23486        2.67912       -1.96068
O          4.84889        3.81312        0.35791
H          4.26058        2.21132        1.56160
H          4.62125        1.80918       -0.13926
H          5.79498        3.65550        0.45188
O          2.69714       -2.09044        0.29431
S          3.40853       -2.39833       -1.17462
O          4.45852       -1.39738       -1.36170
O          3.87773       -3.76449       -0.97831
O          2.28668       -2.27081       -2.14130
H         -3.46108       -3.59738        2.21009
H          0.81391        0.15731        4.32017
H         -1.14224       -3.06709        1.52740
H          0.86345       -3.04168       -1.08770
