62
ZTX_495_solv.log	Energy: -1483138.5693020
C         -1.12806        1.74008        0.69114
N         -0.57711        1.55411        2.00997
C          0.09706        0.45969        2.36086
C         -0.29024        2.39746       -0.42997
H         -1.93862        2.47010        0.78951
N          0.74087        0.41302        3.51319
H          0.82125        1.24635        4.08827
H         -0.72408        2.28070        2.70513
N          0.15440       -0.58061        1.50548
C          0.20055       -1.11111       -0.82831
C          1.64780       -1.06928       -0.20924
C          1.37675       -1.34769        1.27669
O         -0.11437       -2.38885       -1.24894
O          0.12172       -0.19256       -1.86385
H          2.18404       -1.00775        1.93188
H          1.20597       -2.42017        1.44269
O         -0.93233        2.98511       -1.29389
C         -1.71383        0.43359        0.16899
C         -0.76550       -0.76005        0.37849
N         -1.70492       -1.81933        0.65195
C         -2.91087       -1.35383        0.96811
N         -2.92946       -0.00313        0.86934
H         -1.93668        0.55054       -0.90013
N         -3.92877       -2.09932        1.33400
C         -4.10607        0.80591        0.97623
H         -4.88016       -1.72328        1.25688
H         -0.64664       -0.40885       -2.41160
C          2.44845        0.22074       -0.46043
O         -4.81645        0.91329       -0.24739
H         -4.75309        0.41031        1.76825
H         -3.81469        1.82680        1.24034
C         -5.87204        0.09731       -0.43755
O         -6.23371       -0.75920        0.34843
N         -6.43510        0.34798       -1.63617
H         -6.24059        1.22243       -2.12022
O         -7.65177       -0.21549       -1.89397
H         -7.48375       -0.94927       -2.50461
H          2.53278        0.36152       -1.54631
H          3.45164       -0.02200       -0.09210
N          1.05015        2.32578       -0.46665
C          2.09928        1.55916        0.20668
C          3.24609        2.58628        0.08380
C          2.97962        3.21496       -1.28395
O          1.61117        2.91585       -1.59281
H          1.86767        1.45157        1.26770
C          4.65782        2.06440        0.26585
H          3.07282        3.34357        0.86271
H          3.12100        4.30459       -1.28437
H          3.59743        2.76534       -2.07552
O          5.52191        3.18087        0.26240
H          4.72158        1.50540        1.21833
H          4.92094        1.36619       -0.54768
H          6.42781        2.85206        0.25281
O          2.30988       -2.14114       -0.85833
S          3.88409       -2.61738       -0.52141
O          4.05637       -2.37127        0.91627
O          3.82296       -4.02266       -0.91554
O          4.72361       -1.77574       -1.38070
H         -3.80494       -3.10633        1.37875
H          1.14237       -0.45510        3.85182
H         -1.45907       -2.80263        0.59578
H          0.72630       -2.80499       -1.51133
