62
ZTX_94_solv.log	Energy: -1483136.5408713
C         -1.14126        1.73902        0.51455
N         -0.61238        2.00983        1.82915
C          0.12592        1.13062        2.50384
C         -0.31989        2.07307       -0.74931
H         -2.00539        2.39847        0.38140
N          0.74868        1.48516        3.61269
H          0.76363        2.45763        3.90530
H         -0.82625        2.90262        2.26449
N          0.27109       -0.11576        2.01131
C          0.36921       -1.40401       -0.00662
C          1.80680       -1.06379        0.54520
C          1.53761       -0.84135        2.03648
O          0.21972       -2.78223        0.06892
O          0.12295       -0.92520       -1.27659
H          2.32142       -0.25184        2.52650
H          1.43409       -1.80579        2.55294
O         -0.97340        2.33815       -1.75265
C         -1.62771        0.29750        0.41699
C         -0.62350       -0.70132        1.01323
N         -1.51545       -1.65878        1.62950
C         -2.74658       -1.17312        1.77779
N         -2.85165        0.04335        1.18993
H         -1.80676        0.04679       -0.63661
N         -3.71723       -1.79751        2.39980
C         -4.10439        0.57691        0.75714
H         -4.64639       -1.39655        2.46906
H          0.82868       -1.31627       -1.83376
C          2.52364        0.14472       -0.09898
O         -4.50784       -0.14674       -0.39921
H         -4.85721        0.48601        1.55191
H         -3.98718        1.64138        0.51891
C         -5.62414        0.28876       -1.00754
O         -6.26661        1.25076       -0.64582
N         -5.93839       -0.53926       -2.03761
H         -5.20714       -1.12342       -2.43899
O         -6.85132       -0.06806       -2.94374
H         -7.66933       -0.55841       -2.77499
H          3.53823        0.05913        0.30929
H          2.60779       -0.01812       -1.18110
N          1.02233        2.05183       -0.76024
C          2.09346        1.59923        0.12900
C          3.18419        2.60599       -0.30068
C          2.91321        2.77356       -1.79665
O          1.57897        2.29201       -2.00942
H          1.84133        1.81470        1.16815
C          4.62096        2.25491        0.03162
H          2.95126        3.55214        0.20997
H          2.97730        3.82070       -2.12340
H          3.58221        2.15553       -2.41339
O          5.41124        3.37383       -0.31069
H          4.70198        2.01539        1.10843
H          4.94130        1.36350       -0.53555
H          6.33716        3.11919       -0.23030
O          2.66105       -2.19022        0.46337
S          3.30266       -2.71089       -0.98496
O          4.60183       -2.03892       -1.08514
O          3.37347       -4.15303       -0.76950
O          2.34534       -2.29093       -2.03223
H         -3.54305       -2.69621        2.83927
H          1.18403        0.78867        4.20865
H         -1.18028       -2.50162        2.08856
H         -0.62134       -3.01110       -0.35185
