62
ZTX_410_solv.log	Energy: -1483137.5170690
C         -1.07414        1.77462        1.06498
N         -0.46016        1.43670        2.32606
C          0.33967        0.38080        2.47667
C         -0.29617        2.66856        0.06935
H         -1.92952        2.41548        1.29812
N          1.07841        0.24749        3.56245
H          1.13202        1.00063        4.24159
H         -0.61862        2.04944        3.12074
N          0.41453       -0.51394        1.47623
C          0.23718       -1.06141       -0.83949
C          1.74581       -0.99261       -0.36218
C          1.61277       -1.27302        1.14274
O         -0.07322       -2.36612       -1.15815
O         -0.05282       -0.27920       -1.94893
H          2.47423       -0.91453        1.71652
H          1.47336       -2.34466        1.33820
O         -0.80110        3.71138       -0.28524
C         -1.58646        0.52097        0.34868
C         -0.61401       -0.68165        0.45686
N         -1.51156       -1.75689        0.80894
C         -2.75325       -1.34259        1.04102
N         -2.82575        0.00283        0.94138
H         -1.77230        0.75031       -0.71104
N         -3.75673       -2.13468        1.34633
C         -4.04559        0.75344        0.98062
H         -4.71695       -1.80398        1.20313
H          0.20358        0.64309       -1.78648
C          2.49224        0.31735       -0.65807
O         -4.67184        0.85240       -0.28823
H         -4.72670        0.30823        1.71534
H         -3.83197        1.78111        1.28719
C         -5.66961       -0.01037       -0.56557
O         -6.04141       -0.89878        0.17864
N         -6.16049        0.23593       -1.79716
H         -5.97941        1.13073       -2.24817
O         -7.33591       -0.37002       -2.13906
H         -7.10146       -1.08937       -2.74472
H          3.52600        0.11765       -0.34825
H          2.50726        0.46368       -1.74867
N          0.79688        2.12307       -0.58333
C          2.03137        1.59974        0.02837
C          2.96927        2.80978       -0.16185
C          2.48624        3.41343       -1.47831
O          1.17983        2.85541       -1.70394
H          1.89184        1.46164        1.10212
C          4.45555        2.51586       -0.11833
H          2.74354        3.51108        0.65567
H          2.40840        4.50857       -1.44074
H          3.11411        3.11772       -2.33153
O          5.13180        3.75322       -0.18490
H          4.69526        1.97287        0.81463
H          4.74036        1.86750       -0.96555
H          6.07536        3.57183       -0.26094
O          2.40339       -2.00331       -1.10962
S          3.63567       -2.96047       -0.47684
O          2.93138       -4.01558        0.26072
O          4.28701       -3.39962       -1.70616
O          4.42371       -2.05631        0.37072
H         -3.58998       -3.13619        1.37745
H          1.55923       -0.62316        3.76350
H         -1.26152       -2.72770        0.64366
H          0.75523       -2.77321       -1.46822
