62
ZTX_280_solv.log	Energy: -1483137.7311815
C          0.98152       -1.93710        0.60943
N          0.37091       -1.80835        1.90954
C         -0.38434       -0.76179        2.23904
C          0.21040       -2.59964       -0.55551
H          1.81684       -2.63648        0.72169
N         -1.08760       -0.76222        3.35656
H         -1.15086       -1.60335        3.92218
H          0.52921       -2.53606        2.60096
N         -0.46268        0.27233        1.38158
C         -0.36036        0.94259       -0.91389
C         -1.84767        0.83707       -0.37933
C         -1.68240        1.03317        1.13983
O         -0.05538        2.21557       -1.35816
O         -0.07001        0.04213       -1.92121
H         -2.52593        0.62828        1.71045
H         -1.53690        2.08436        1.41694
O          0.90034       -3.17147       -1.39280
C          1.53633       -0.59430        0.14177
C          0.52630        0.55135        0.34181
N          1.39391        1.63385        0.73466
C          2.60993        1.21124        1.07142
N          2.70039       -0.12922        0.90879
H          1.80547       -0.66775       -0.91959
N          3.57586        1.98677        1.50825
C          3.91440       -0.88018        1.02426
H          4.54705        1.66054        1.45809
H         -0.62944        0.24192       -2.68576
C         -2.57191       -0.48559       -0.70712
O          4.67916       -0.88350       -0.17127
H          4.50713       -0.49416        1.86229
H          3.66920       -1.92766        1.22204
C          5.70607       -0.01597       -0.26703
O          5.99569        0.80910        0.58020
N          6.33168       -0.17563       -1.45018
H          6.19577       -1.02841       -1.98982
O          7.53363        0.44965       -1.62004
H          7.36222        1.21159       -2.19436
H         -3.61177       -0.25510       -0.44343
H         -2.55487       -0.62535       -1.79722
N         -1.12727       -2.54298       -0.65725
C         -2.22316       -1.81489       -0.02189
C         -3.32350       -2.88780       -0.19201
C         -3.01550       -3.42983       -1.58255
O         -1.62813       -3.14061       -1.81119
H         -2.04625       -1.70847        1.04827
C         -4.76792       -2.46384        0.01948
H         -3.09811       -3.66858        0.54985
H         -3.17396       -4.51440       -1.65901
H         -3.59454       -2.91934       -2.36732
O         -5.01362       -2.03960        1.34306
H         -5.06734       -1.69689       -0.71543
H         -5.40920       -3.33951       -0.16145
H         -4.65461       -1.15157        1.45730
O         -2.64556        1.79601       -1.06281
S         -3.08046        3.26537       -0.43531
O         -1.78118        3.92540       -0.15080
O         -3.82028        3.84039       -1.55025
O         -3.86430        2.97927        0.76837
H          3.40114        2.98370        1.59260
H         -1.55838        0.07804        3.67550
H          1.11559        2.61021        0.70656
H         -0.60848        2.90101       -0.92109
