62
ZTX_470_solv.log	Energy: -1483139.1972570
C         -1.56888        1.39694       -0.05294
N         -1.47074        1.03488        1.34086
C         -0.63019        0.09918        1.78392
C         -0.63191        2.49414       -0.60921
H         -2.55417        1.85487       -0.18801
N         -0.38005       -0.02341        3.07423
H         -0.74127        0.66020        3.73254
H         -2.03918        1.53970        2.01533
N         -0.00013       -0.68007        0.88677
C          0.88787       -1.02169       -1.29962
C          2.02945       -0.76022       -0.23430
C          1.34767       -1.20575        1.06827
O          0.97405       -2.32385       -1.74145
O          0.94197       -0.19259       -2.41377
H          1.81921       -0.77727        1.95893
H          1.33939       -2.30019        1.15945
O         -1.12996        3.47383       -1.12150
C         -1.50438        0.15190       -0.94587
C         -0.47001       -0.89948       -0.47659
N         -1.24249       -2.11917       -0.55636
C         -2.54289       -1.89886       -0.72812
N         -2.76797       -0.58432       -0.93240
H         -1.28374        0.45081       -1.98134
N         -3.47358       -2.82562       -0.73019
C         -3.97224       -0.01972       -1.47252
H         -4.45099       -2.53283       -0.62958
H          0.95514        0.73848       -2.13963
C          2.57774        0.67293       -0.16529
O         -4.77000        0.61613       -0.48972
H         -3.70146        0.77114       -2.18053
H         -4.54971       -0.79046       -1.99785
C         -5.61677       -0.15448        0.21765
O         -5.76674       -1.35010        0.05143
N         -6.23956        0.59084        1.15580
H         -6.26128        1.60444        1.05759
O         -7.32810        0.03985        1.77149
H         -7.03874       -0.19445        2.66609
H          3.42689        0.61910        0.52547
H          2.99467        0.92521       -1.15147
N          0.71062        2.19346       -0.75046
C          1.65791        1.79412        0.30582
C          2.34377        3.15312        0.58032
C          2.35078        3.81414       -0.79537
O          1.38566        3.08797       -1.57687
H          1.11756        1.52458        1.21527
C          3.68118        3.13282        1.30089
H          1.64975        3.70545        1.23090
H          2.06047        4.87333       -0.75369
H          3.31782        3.71325       -1.30462
O          4.70789        2.67909        0.44653
H          3.89386        4.15660        1.65703
H          3.58810        2.49026        2.19494
H          5.51300        2.59269        0.96903
O          3.10924       -1.57817       -0.65812
S          4.13386       -2.36761        0.41736
O          3.40852       -3.59214        0.77514
O          5.30432       -2.57313       -0.42986
O          4.31677       -1.42890        1.53218
H         -3.21614       -3.78669       -0.52802
H          0.11845       -0.83061        3.43477
H         -0.83366       -3.03160       -0.38121
H          1.91795       -2.55881       -1.70316
