62
ZTX_255_solv.log	Energy: -1483139.7238253
C          1.48003        1.32521        0.36010
N          1.57202        1.42443       -1.07659
C          0.85876        0.65131       -1.89542
C          0.40806        2.15793        1.10136
H          2.40448        1.75142        0.76179
N          0.77683        0.92544       -3.18400
H          1.17459        1.78443       -3.55268
H          2.18241        2.13148       -1.47676
N          0.17747       -0.38241       -1.36984
C         -0.92502       -1.42969        0.48575
C         -1.95724       -0.89302       -0.59921
C         -1.10200       -0.85969       -1.86896
O         -0.93979       -2.80326        0.53414
O         -1.14482       -0.95654        1.77420
H         -1.50865       -0.18327       -2.63053
H         -1.01675       -1.87114       -2.29090
O          0.77343        2.93146        1.96036
C          1.40914       -0.14205        0.80277
C          0.50506       -1.01618       -0.09878
N          1.34363       -2.17419       -0.31160
C          2.59911       -1.98420        0.08512
N          2.71431       -0.79576        0.71402
H          1.05615       -0.19937        1.84316
N          3.58280       -2.83789       -0.08246
C          3.80723       -0.40398        1.55906
H          4.54483       -2.50803        0.05241
H         -1.21373        0.01120        1.77556
C         -2.59930        0.47356       -0.30213
O          4.69216        0.50446        0.92780
H          3.40098        0.13563        2.42174
H          4.35147       -1.28932        1.91078
C          5.71087       -0.01103        0.21497
O          5.89834       -1.20071        0.03806
N          6.50980        0.97964       -0.22942
H          6.18229        1.94368       -0.22651
O          7.43163        0.66783       -1.18717
H          8.28655        0.61855       -0.73294
H         -3.34475        0.60674       -1.09681
H         -3.15709        0.41702        0.64260
N         -0.91975        1.79451        0.95999
C         -1.70904        1.71542       -0.28126
C         -2.48180        3.04845       -0.19960
C         -2.69265        3.22877        1.30092
O         -1.74351        2.35304        1.93359
H         -1.05076        1.77460       -1.14946
C         -3.75334        3.14052       -1.01966
H         -1.79486        3.82921       -0.55979
H         -2.51015        4.25883        1.63602
H         -3.69383        2.90779        1.62430
O         -4.22856        4.46511       -0.90743
H         -3.53358        2.87669       -2.07088
H         -4.50267        2.42239       -0.64292
H         -5.10068        4.50332       -1.31562
O         -2.97365       -1.84289       -0.89333
S         -4.19553       -2.32341        0.12539
O         -5.00210       -1.14259        0.44061
O         -4.85330       -3.31719       -0.71537
O         -3.49255       -2.88498        1.30200
H          3.41355       -3.69221       -0.60395
H          0.37922        0.25548       -3.83444
H          1.02586       -2.98931       -0.82629
H         -1.83145       -3.05565        0.86548
