62
ZTX_283_solv.log	Energy: -1483145.6071658
C         -1.39079        1.22195       -0.65630
N         -1.48104        1.55150        0.74516
C         -0.83983        0.86176        1.68666
C         -0.28230        1.83609       -1.53988
H         -2.28722        1.63567       -1.13050
N         -0.78491        1.30609        2.92869
H         -1.12940        2.23370        3.15744
H         -2.07549        2.32682        1.02409
N         -0.20002       -0.27191        1.33868
C          0.90616       -1.46745       -0.41028
C          1.93478       -0.78499        0.58874
C          1.10329       -0.65535        1.86621
O          0.97256       -2.85081       -0.32072
O          1.03277       -1.01928       -1.71542
H          1.49755        0.10706        2.54920
H          1.05677       -1.62110        2.38848
O         -0.58312        2.02517       -2.71415
C         -1.41589       -0.29194       -0.85896
C         -0.51232       -1.04582        0.13686
N         -1.33828       -2.18459        0.46559
C         -2.61153       -2.00117        0.11465
N         -2.73596       -0.87711       -0.62318
H         -1.09869       -0.52093       -1.88430
N         -3.60152       -2.80820        0.41652
C         -3.84441       -0.56569       -1.48238
H         -4.56333       -2.47776        0.27875
H          1.93184       -1.26428       -2.00262
C          2.52702        0.56682        0.14147
O         -4.70254        0.41741       -0.93149
H         -3.45038       -0.12554       -2.40505
H         -4.40804       -1.47451       -1.72727
C         -5.70504       -0.00816       -0.14115
O         -5.89979       -1.17095        0.16225
N         -6.48241        1.03221        0.22134
H         -6.14385        1.98666        0.11676
O         -7.37968        0.82834        1.23057
H         -8.24679        0.74073        0.80627
H          3.34163        0.72031        0.85825
H          2.99290        0.46232       -0.84754
N          0.94454        2.10916       -1.06801
C          1.70059        1.86128        0.15812
C          2.58245        3.13357        0.13853
C          2.84503        3.32990       -1.35258
O          1.83292        2.57216       -2.03051
H          1.04865        1.93789        1.02785
C          3.83536        3.10555        0.98737
H          1.94171        3.95173        0.49975
H          2.77524        4.38340       -1.65755
H          3.81785        2.92191       -1.66426
O          3.45854        2.81969        2.31766
H          4.54582        2.35458        0.59886
H          4.33365        4.08866        0.91096
H          4.26129        2.71377        2.84053
O          3.00026       -1.66562        0.92996
S          4.20027       -2.07143       -0.14365
O          5.12844       -0.94235       -0.20453
O          4.72947       -3.28101        0.47401
O          3.46746       -2.30653       -1.41529
H         -3.42459       -3.61436        1.00748
H         -0.42328        0.72123        3.67470
H         -1.02465       -2.92432        1.08647
H          1.82968       -3.10869       -0.70277
