62
ZTX_447_solv.log	Energy: -1483136.6051408
C          1.39554        1.27451        0.49229
N          1.45162        1.53173       -0.92576
C          0.80297        0.78631       -1.81823
C          0.30623        1.93221        1.36707
H          2.29976        1.71674        0.92357
N          0.70189        1.17481       -3.07586
H          1.01135        2.10179       -3.35280
H          2.01397        2.31161       -1.25466
N          0.20425       -0.34717       -1.40461
C         -0.84214       -1.52632        0.40373
C         -1.90518       -0.88474       -0.58361
C         -1.09852       -0.78782       -1.88172
O         -0.84958       -2.89840        0.31692
O         -1.00529       -1.16644        1.73833
H         -1.52816       -0.07262       -2.59299
H         -1.03694       -1.77642       -2.35722
O          0.64635        2.23021        2.50702
C          1.43770       -0.22713        0.77994
C          0.56539       -1.05892       -0.18013
N          1.43859       -2.17191       -0.47118
C          2.69428       -1.95133       -0.08496
N          2.77383       -0.79502        0.60818
H          1.09988       -0.40385        1.81058
N          3.70967       -2.75054       -0.31721
C          3.84875       -0.42316        1.48542
H          4.65949       -2.39399       -0.16310
H         -1.44392       -0.31190        1.83379
C         -2.52647        0.47395       -0.18501
O          4.70774        0.55076        0.91905
H          3.41771        0.04991        2.37476
H          4.42121       -1.30914        1.78737
C          5.75309        0.10979        0.19589
O          5.97660       -1.06086       -0.05245
N          6.53420        1.14692       -0.16821
H          6.17853        2.09944       -0.11492
O          7.47829        0.91933       -1.12851
H          8.32662        0.85920       -0.66350
H         -3.35883        0.56952       -0.89293
H         -3.00138        0.39309        0.80352
N         -0.96061        2.09489        0.94433
C         -1.73973        1.79479       -0.25823
C         -2.66300        3.03309       -0.24677
C         -2.92501        3.21803        1.24491
O         -1.82022        2.59621        1.91584
H         -1.10686        1.86749       -1.14385
C         -3.91551        2.98222       -1.11295
H         -2.05414        3.87494       -0.60867
H         -2.97217        4.27405        1.54357
H         -3.84406        2.70414        1.56708
O         -4.52581        4.25056       -1.21670
H         -3.63569        2.67512       -2.13236
H         -4.63008        2.23656       -0.72359
H         -4.94058        4.45596       -0.37023
O         -2.95622       -1.79377       -0.88903
S         -4.11845       -2.35052        0.16384
O         -4.81494       -1.18581        0.71356
O         -4.90669       -3.17910       -0.74042
O         -3.35717       -3.11044        1.18178
H          3.56833       -3.58161       -0.88271
H          0.33975        0.54766       -3.78675
H          1.14735       -2.96222       -1.03769
H         -1.72498       -3.19399        0.65584
