62
ZTX_469_solv.log	Energy: -1483139.1520135
C         -1.55640        1.41323       -0.04511
N         -1.45730        1.04950        1.34810
C         -0.62148        0.10841        1.78859
C         -0.61392        2.50533       -0.60220
H         -2.53911        1.87749       -0.17776
N         -0.36936       -0.01667        3.07825
H         -0.72587        0.66823        3.73779
H         -2.01932        1.55888        2.02449
N          0.00173       -0.67388        0.88941
C          0.88358       -1.01817       -1.29903
C          2.02855       -0.76517       -0.23540
C          1.34634       -1.20841        1.06772
O          0.96100       -2.32007       -1.74337
O          0.94074       -0.18751       -2.41189
H          1.82202       -0.78431        1.95826
H          1.33131       -2.30293        1.15728
O         -1.10733        3.48737       -1.11463
C         -1.50076        0.16918       -0.93998
C         -0.47209       -0.88901       -0.47332
N         -1.25161       -2.10397       -0.55276
C         -2.55081       -1.87626       -0.72511
N         -2.76842       -0.56024       -0.92736
H         -1.27857        0.46869       -1.97497
N         -3.48638       -2.79791       -0.72902
C         -3.97324        0.01299       -1.45701
H         -4.46385       -2.50105       -0.63572
H          0.96152        0.74293       -2.13625
C          2.58551        0.66455       -0.16501
O         -4.77200        0.62671       -0.46087
H         -3.70211        0.81695       -2.15000
H         -4.54953       -0.74851       -1.99694
C         -5.66008       -0.14834        0.18952
O         -5.80345       -1.34230        0.00156
N         -6.39023        0.60206        1.03843
H         -6.08096        1.53792        1.29385
O         -7.15073       -0.04822        1.96694
H         -8.06485        0.00302        1.64893
H          3.43541        0.60432        0.52426
H          3.00241        0.91588       -1.15145
N          0.72686        2.19804       -0.74411
C          1.67361        1.79076        0.30963
C          2.36896        3.14477        0.58485
C          2.37782        3.80772       -0.78987
O          1.40606        3.08946       -1.57047
H          1.13381        1.52335        1.21999
C          3.70757        3.11449        1.30290
H          1.67986        3.70074        1.23755
H          2.09503        4.86885       -0.74612
H          3.34315        3.70076       -1.30111
O          4.72982        2.65611        0.44566
H          3.92742        4.13614        1.66076
H          3.61207        2.47065        2.19579
H          5.53594        2.56578        0.96598
O          3.10282       -1.58857       -0.66258
S          4.12392       -2.38741        0.40917
O          3.39132       -3.60840        0.76427
O          5.29191       -2.59779       -0.44032
O          4.31452       -1.45332        1.52658
H         -3.23389       -3.76064       -0.52855
H          0.12534       -0.82688        3.43724
H         -0.84706       -3.01929       -0.38307
H          1.90349       -2.56099       -1.70754
