62
ZTX_73_solv.log	Energy: -1483141.5078096
C          1.57942        0.97452        0.96133
N          1.84604        1.29683       -0.41914
C          1.32075        0.59406       -1.42270
C          0.40066        1.62840        1.70934
H          2.42486        1.36750        1.53578
N          1.50275        0.97975       -2.67240
H          1.96463        1.86245       -2.87000
H          2.66922        1.87973       -0.61730
N          0.55155       -0.47664       -1.13850
C         -0.84742       -1.53651        0.48335
C         -1.68799       -0.82361       -0.64935
C         -0.69758       -0.79912       -1.81836
O         -1.09663       -2.89851        0.37501
O         -1.09284       -1.06309        1.75641
H         -0.94583       -0.04227       -2.57199
H         -0.64999       -1.78655       -2.29892
O          0.54445        1.76399        2.92017
C          1.53360       -0.53848        1.15902
C          0.65789       -1.23649        0.10686
N          1.40826       -2.45859       -0.10935
C          2.69723       -2.28876        0.21111
N          2.84195       -1.17161        0.94710
H          1.16882       -0.76825        2.16870
N          3.65623       -3.12449       -0.11571
C          4.05453       -0.65207        1.50733
H          4.62869       -2.84060       -0.01881
H         -2.05564       -1.19057        1.89025
C         -2.22780        0.58685       -0.32221
O          4.53413        0.44200        0.74137
H          3.84916       -0.24317        2.50266
H          4.81107       -1.44045        1.59347
C          5.13373        0.15288       -0.42366
O          5.54460       -0.94771       -0.73186
N          5.28507        1.25199       -1.20590
H          5.54351        1.09194       -2.17760
O          4.46825        2.33770       -1.01962
H          4.98191        2.99940       -0.53108
H         -2.93721        0.77961       -1.13504
H         -2.82689        0.54365        0.59609
N         -0.71499        2.01956        1.07593
C         -1.32271        1.82173       -0.24039
C         -2.09801        3.15999       -0.33081
C         -2.52165        3.39818        1.11970
O         -1.69308        2.53744        1.91443
H         -0.55732        1.84689       -1.01738
C         -3.21053        3.27981       -1.35936
H         -1.34544        3.91402       -0.60232
H         -2.37096        4.44154        1.43203
H         -3.56200        3.10295        1.30581
O         -4.37404        2.60616       -0.93165
H         -3.41904        4.35358       -1.51286
H         -2.84377        2.88032       -2.32215
H         -5.00285        2.60191       -1.66182
O         -2.76981       -1.63934       -1.06317
S         -4.13304       -1.84456       -0.12571
O         -5.06953       -0.81507       -0.58624
O         -4.51441       -3.21299       -0.46520
O         -3.69912       -1.65624        1.27637
H          3.44247       -3.90683       -0.72693
H          1.22330        0.38571       -3.44606
H          1.09969       -3.15958       -0.77770
H         -0.64048       -3.34055        1.10489
