62
ZTX_329_solv.log	Energy: -1483137.9620736
C         -1.06087        1.79211        0.75304
N         -0.48069        1.58485        2.05692
C          0.25906        0.51478        2.34344
C         -0.26258        2.51747       -0.35433
H         -1.89569        2.48818        0.88711
N          0.92494        0.43850        3.48137
H          0.96689        1.24025        4.10363
H         -0.66783        2.26357        2.78970
N          0.36049       -0.46247        1.42355
C          0.32796       -0.95946       -0.91663
C          1.79848       -0.90387       -0.32964
C          1.58636       -1.20763        1.16623
O          0.03547       -2.18927       -1.47651
O          0.07043        0.02291       -1.85339
H          2.41020       -0.84464        1.79118
H          1.43187       -2.27504        1.36451
O         -0.93517        3.12719       -1.17854
C         -1.60715        0.48136        0.19518
C         -0.59575       -0.66938        0.33769
N         -1.46822       -1.78097        0.62653
C         -2.68648       -1.38479        0.98710
N         -2.77866       -0.03610        0.91585
H         -1.86171        0.61997       -0.86339
N         -3.65198       -2.19003        1.36994
C         -3.99092        0.70807        1.07743
H         -4.62368       -1.86527        1.31629
H          0.66949       -0.09721       -2.60435
C          2.54524        0.43120       -0.53507
O         -4.73386        0.81652       -0.12769
H         -4.59889        0.25646        1.87004
H         -3.74642        1.73406        1.36705
C         -5.74744       -0.04114       -0.31635
O         -6.04295       -0.94240        0.45363
N         -6.44790        0.22342       -1.43657
H         -7.09556       -0.48550       -1.77405
O         -5.95230        1.07549       -2.38327
H         -6.42955        1.91147       -2.26925
H          2.59657        0.63317       -1.61469
H          3.56522        0.17981       -0.21701
N          1.07855        2.47973       -0.42191
C          2.16572        1.72453        0.20093
C          3.26781        2.80278        0.11230
C          2.95823        3.48220       -1.22179
O          1.60158        3.13306       -1.53170
H          1.95802        1.56422        1.25921
C          4.70221        2.33769        0.26310
H          3.06857        3.51490        0.92686
H          3.04889        4.57610       -1.17085
H          3.58669        3.10047       -2.04004
O          5.51342        3.49175        0.32268
H          4.79499        1.72959        1.18242
H          4.99378        1.70117       -0.59020
H          6.43386        3.20692        0.30038
O          2.61234       -1.81638       -1.05628
S          3.01072       -3.33389       -0.52888
O          3.76886       -3.14752        0.71027
O          1.69664       -3.99418       -0.32301
O          3.76921       -3.83753       -1.66574
H         -3.47458       -3.19014        1.37922
H          1.37460       -0.42583        3.76475
H         -1.18000       -2.75252        0.55958
H          0.55827       -2.91308       -1.06495
