62
ZTX_288_solv.log	Energy: -1483136.7423583
C         -1.33899        1.73172        0.38899
N         -0.78338        2.13618        1.65658
C          0.03215        1.35213        2.35803
C         -0.56983        2.01574       -0.92253
H         -2.24008        2.33476        0.23313
N          0.66788        1.81583        3.41806
H          0.62557        2.80370        3.65069
H         -1.04701        3.03898        2.04112
N          0.24359        0.09095        1.93424
C          0.33234       -1.32013       -0.00627
C          1.77258       -0.87770        0.47301
C          1.54765       -0.55417        1.95314
O          0.13748       -2.67896        0.10105
O          0.12787       -0.86357       -1.30113
H          2.31944        0.10898        2.36202
H          1.52273       -1.48302        2.53971
O         -1.26004        2.17151       -1.92346
C         -1.75225        0.26338        0.43399
C         -0.65471       -0.63286        1.03452
N         -1.44342       -1.59472        1.76503
C         -2.68805       -1.16974        1.96457
N         -2.89873       -0.00011        1.31667
H         -1.99039       -0.06604       -0.58541
N         -3.57903       -1.81099        2.68548
C         -4.21314        0.52990        1.08504
H         -4.53963       -1.49216        2.75482
H         -0.59715       -1.37101       -1.69336
C          2.39590        0.29845       -0.30112
O         -4.95862       -0.24483        0.16339
H         -4.78052        0.51817        2.02204
H         -4.12873        1.56548        0.73964
C         -4.88112        0.09414       -1.14302
O         -4.18112        0.97917       -1.58393
N         -5.73579       -0.67376       -1.85797
H         -6.09034       -1.54001       -1.45687
O         -5.57498       -0.68409       -3.21612
H         -6.29345       -0.14190       -3.57452
H          3.44586        0.27839        0.01563
H          2.39247        0.06610       -1.37256
N          0.77114        2.09686       -0.96792
C          1.89706        1.73928       -0.10628
C          2.90332        2.79631       -0.61905
C          2.61116        2.80413       -2.11483
O          1.27168        2.30856       -2.25020
H          1.67955        1.98471        0.93375
C          4.36915        2.61258       -0.26155
H          2.57680        3.75514       -0.18914
H          2.66871        3.81086       -2.55140
H          3.27322        2.12477       -2.67325
O          4.59308        2.67946        1.13046
H          4.76839        1.67860       -0.69447
H          4.93705        3.43746       -0.71725
H          4.27904        1.86224        1.53569
O          2.68425       -1.97083        0.49271
S          3.31618       -2.74673       -0.83465
O          4.08997       -1.76702       -1.59916
O          4.10329       -3.78168       -0.17406
O          2.12888       -3.25191       -1.56379
H         -3.31675       -2.66392        3.16994
H          1.16926        1.18747        4.03734
H         -1.04903       -2.43511        2.17667
H          0.78723       -3.10194       -0.50666
