62
ZTX_508_solv.log	Energy: -1483143.0980001
C          1.58369        0.79052        0.78903
N          1.76061        1.18285       -0.58812
C          1.07402        0.62237       -1.58201
C          0.53706        1.49536        1.67753
H          2.51502        1.06648        1.29526
N          1.13392        1.11181       -2.80635
H          1.61659        1.98710       -2.98561
H          2.53855        1.79957       -0.80990
N          0.26496       -0.41851       -1.30130
C         -1.03510       -1.51493        0.37728
C         -1.93782       -0.65549       -0.60906
C         -1.06763       -0.58389       -1.86614
O         -1.30072       -2.86950        0.24176
O         -1.11609       -1.09184        1.69487
H         -1.33370        0.25787       -2.51683
H         -1.14804       -1.52104       -2.43469
O          0.80431        1.55682        2.87324
C          1.43204       -0.72247        0.89808
C          0.43710       -1.28687       -0.13609
N          1.08474       -2.52171       -0.51154
C          2.37339       -2.52705       -0.17256
N          2.66750       -1.45124        0.58386
H          1.09874       -0.98193        1.91069
N          3.22704       -3.46304       -0.52114
C          3.89994       -1.31078        1.31853
H          4.20414       -3.41776       -0.25193
H         -2.04723       -1.19819        1.96145
C         -2.34641        0.74398       -0.10839
O          4.97647       -0.97442        0.46572
H          3.76015       -0.55997        2.10515
H          4.18482       -2.26433        1.78069
C          5.17861        0.32822        0.17304
O          4.61502        1.25551        0.71473
N          6.07366        0.43106       -0.83530
H          6.67008       -0.36199       -1.06397
O          6.63260        1.66080       -1.04805
H          6.19793        2.01877       -1.83648
H         -3.13367        1.03480       -0.81291
H         -2.82378        0.66560        0.87756
N         -0.59593        2.01176        1.17485
C         -1.34485        1.90746       -0.07538
C         -2.03157        3.29060       -0.03653
C         -2.34546        3.45006        1.44715
O         -1.43601        2.57463        2.13131
H         -0.66583        1.90917       -0.92761
C         -3.21109        3.49025       -0.97205
H         -1.25285        4.01913       -0.31228
H         -2.19360        4.47742        1.80583
H         -3.36670        3.12285        1.69444
O         -2.88197        3.16341       -2.30549
H         -4.05420        2.84586       -0.68248
H         -3.56119        4.53389       -0.88502
H         -2.15555        3.73555       -2.58299
O         -3.10526       -1.36722       -1.00551
S         -4.37350       -1.64874        0.02937
O         -5.05647       -2.73747       -0.65807
O         -3.70980       -2.04751        1.29848
O         -5.13172       -0.40239        0.13731
H          2.91811       -4.23719       -1.10070
H          0.73041        0.60525       -3.58784
H          0.65792       -3.19904       -1.13590
H         -2.19379       -3.00923        0.60449
