62
ZTX_401_solv.log	Energy: -1483139.0490392
C         -1.49172        1.42175       -0.12901
N         -1.38993        1.12064        1.27835
C         -0.59091        0.16594        1.75556
C         -0.52015        2.45014       -0.75247
H         -2.45769        1.91631       -0.27312
N         -0.34200        0.08022        3.04901
H         -0.66819        0.80385        3.68242
H         -1.93036        1.67786        1.93451
N         -0.00116       -0.67570        0.88775
C          0.85721       -1.13524       -1.28814
C          2.01577       -0.87558       -0.23930
C          1.32612       -1.24557        1.08306
O          0.89274       -2.45664       -1.67623
O          0.93344       -0.35608       -2.43616
H          1.81770       -0.80103        1.95458
H          1.27633       -2.33451        1.21692
O         -0.98914        3.40726       -1.33075
C         -1.49126        0.13515       -0.96399
C         -0.48955       -0.93224       -0.46238
N         -1.30443       -2.12660       -0.48899
C         -2.59969       -1.86545       -0.64573
N         -2.78109       -0.55200       -0.89574
H         -1.27484        0.37730       -2.01547
N         -3.56286       -2.75662       -0.59498
C         -3.98124        0.03630       -1.42098
H         -4.53077       -2.42823       -0.50627
H          0.98540        0.58442       -2.20327
C          2.61943        0.53796       -0.21997
O         -4.74908        0.69424       -0.42842
H         -3.70183        0.81441       -2.13968
H         -4.58539       -0.72437       -1.93044
C         -5.66341       -0.03511        0.23808
O         -5.85074       -1.22661        0.07326
N         -6.36478        0.75707        1.07304
H         -6.02240        1.68649        1.30883
O         -7.14382        0.15175        2.01654
H         -8.05558        0.21679        1.69433
H          3.45432        0.46404        0.48856
H          3.05661        0.73377       -1.21076
N          0.81172        2.10135       -0.87268
C          1.74732        1.71846        0.19819
C          2.50934        3.04709        0.38263
C          2.54234        3.61802       -1.03179
O          1.51173        2.92109       -1.75418
H          1.20573        1.52437        1.12633
C          3.86595        2.95265        1.05169
H          1.87137        3.68734        1.01069
H          2.33456        4.69619       -1.06148
H          3.49356        3.41157       -1.54436
O          4.33169        4.27056        1.24963
H          3.76441        2.41094        2.01045
H          4.56574        2.38109        0.41705
H          5.23826        4.21889        1.57278
O          3.06338       -1.74457       -0.63911
S          4.05574       -2.54991        0.45631
O          5.22119       -2.81153       -0.38212
O          4.26715       -1.59689        1.55364
O          3.28514       -3.74045        0.83283
H         -3.33656       -3.71823       -0.36055
H          0.12368       -0.73364        3.43753
H         -0.92538       -3.04528       -0.28237
H          1.82831       -2.72276       -1.64269
