62
ZTX_457_solv.log	Energy: -1483138.2249624
C          1.11752       -1.89301        0.09971
N          0.65083       -2.28977        1.40495
C         -0.04557       -1.47240        2.19230
C          0.22771       -2.09412       -1.14816
H          1.95835       -2.54958       -0.14678
N         -0.62316       -1.92269        3.29105
H         -0.63304       -2.91737        3.49646
H          0.87016       -3.22408        1.73906
N         -0.19920       -0.18517        1.82246
C         -0.35554        1.28603       -0.06985
C         -1.77838        0.91348        0.50740
C         -1.45774        0.53548        1.95714
O         -0.06574        2.62456        0.07491
O         -0.28477        0.87488       -1.39365
H         -2.23502       -0.09205        2.41008
H         -1.33199        1.44518        2.56037
O          0.82587       -2.26396       -2.20504
C          1.63115       -0.45904        0.13077
C          0.66627        0.49557        0.85879
N          1.59341        1.37521        1.52953
C          2.82996        0.88424        1.55394
N          2.87804       -0.29297        0.88771
H          1.78892       -0.11993       -0.90172
N          3.85112        1.45335        2.15423
C          4.07821       -1.01192        0.58381
H          4.80203        1.20495        1.85920
H          0.46684        1.31840       -1.81344
C         -2.53667       -0.19744       -0.24487
O          4.68769       -0.57586       -0.62184
H          4.77690       -0.93280        1.42477
H          3.83661       -2.06773        0.42846
C          5.68677        0.31416       -0.52861
O          6.08152        0.80317        0.51891
N          6.25159        0.58642       -1.72107
H          6.86894        1.39340       -1.78357
O          5.63810        0.21440       -2.88418
H          6.12344       -0.55922       -3.20925
H         -3.55711       -0.11194        0.14881
H         -2.59464        0.06227       -1.30831
N         -1.11307       -2.09142       -1.08105
C         -2.13053       -1.67415       -0.11642
C         -3.24772       -2.65145       -0.54924
C         -3.09382       -2.64682       -2.06548
O         -1.73803       -2.24748       -2.31575
H         -1.83605       -1.95322        0.89519
C         -4.65751       -2.37909       -0.05173
H         -2.94734       -3.63812       -0.16544
H         -3.26479       -3.63655       -2.51105
H         -3.75158       -1.90855       -2.54920
O         -4.75037       -2.45146        1.35499
H         -5.03247       -1.41407       -0.43554
H         -5.32050       -3.15802       -0.45685
H         -4.33216       -1.66942        1.73492
O         -2.61704        2.05844        0.62642
S         -3.29025        2.91848       -0.62656
O         -4.15140        2.00857       -1.38375
O         -3.98914        3.95618        0.12309
O         -2.12631        3.40446       -1.40484
H          3.70554        2.34449        2.61912
H         -1.03042       -1.28009        3.96257
H          1.32734        2.27921        1.90680
H         -0.72859        3.11405       -0.46557
