62
ZTX_168_solv.log	Energy: -1483136.2791308
C         -1.35160        1.57472        0.75619
N         -0.82283        1.72523        2.09048
C         -0.03728        0.81243        2.65998
C         -0.54803        2.07902       -0.46497
H         -2.23938        2.21254        0.69546
N          0.58852        1.07384        3.79302
H          0.56601        2.00921        4.18807
H         -1.06885        2.55654        2.62051
N          0.14999       -0.36596        2.03437
C          0.24833       -1.46094       -0.09301
C          1.68380       -1.12126        0.46673
C          1.43449       -1.05580        1.97578
O          0.14729       -2.84478       -0.14409
O         -0.03680       -0.87718       -1.31008
H          2.21331       -0.50027        2.51086
H          1.36211       -2.06932        2.39466
O         -1.21195        2.43652       -1.43165
C         -1.79011        0.13338        0.51622
C         -0.74600       -0.88668        1.00183
N         -1.59490       -1.92414        1.53988
C         -2.84086       -1.50019        1.74198
N         -2.99481       -0.24086        1.27315
H         -1.96378       -0.01978       -0.55745
N         -3.77521       -2.22159        2.31579
C         -4.28114        0.33438        0.99402
H         -4.72835       -1.88760        2.40751
H          0.67169       -1.19129       -1.91149
C          2.34326        0.17336       -0.06175
O         -4.83815       -0.18372       -0.19918
H         -4.97637        0.09200        1.80444
H         -4.18705        1.42382        0.93048
C         -4.72028        0.56258       -1.32286
O         -4.25062        1.67735       -1.36526
N         -5.17023       -0.15103       -2.38198
H         -5.77557       -0.95443       -2.22432
O         -5.41652        0.54183       -3.53585
H         -4.68391        0.33262       -4.13417
H          3.37385        0.07197        0.29944
H          2.39324        0.13462       -1.15750
N          0.79481        2.11276       -0.47705
C          1.88475        1.58200        0.34176
C          2.95169        2.65402        0.02535
C          2.68069        2.94955       -1.44817
O          1.33055        2.53353       -1.69048
H          1.64160        1.67434        1.40060
C          4.39931        2.30887        0.35281
H          2.68788        3.54041        0.62099
H          2.77683        4.01647       -1.69292
H          3.33184        2.36172       -2.11346
O          5.23844        3.44082        0.26791
H          4.45523        1.94440        1.39014
H          4.76610        1.50151       -0.30427
H          5.36803        3.65148       -0.66446
O          2.57691       -2.20060        0.25782
S          3.21758       -2.53622       -1.24348
O          4.47261       -1.77992       -1.30026
O          3.37887       -3.98536       -1.17299
O          2.21366       -2.07507       -2.22808
H         -3.55440       -3.15075        2.66116
H          1.06484        0.33857        4.30543
H         -1.22935       -2.80748        1.88482
H         -0.67459       -3.06348       -0.60624
