62
ZTX_13_solv.log	Energy: -1483139.7246975
C         -1.69477        1.03400        0.85778
N         -1.27527        0.96694        2.23523
C         -0.43501        0.03929        2.69288
C         -0.89088        1.85965       -0.17252
H         -2.65171        1.56728        0.85248
N          0.06387        0.13233        3.91126
H         -0.10912        0.95970        4.47439
H         -1.66038        1.64159        2.89056
N         -0.05583       -0.96774        1.87960
C          0.38132       -1.50262       -0.41864
C          1.70111       -1.13448        0.35990
C          1.32046       -1.45267        1.80949
O          0.48472       -2.83548       -0.79178
O          0.11227       -0.68332       -1.49540
H          1.96174       -0.94502        2.53887
H          1.36613       -2.53671        1.98265
O         -1.52907        2.30453       -1.12513
C         -1.90837       -0.36720        0.29544
C         -0.77394       -1.33598        0.65885
N         -1.50884       -2.56521        0.83383
C         -2.82114       -2.35954        0.95349
N         -3.10621       -1.04661        0.80752
H         -1.97050       -0.30821       -0.79921
N         -3.68787       -3.31689        1.18749
C         -4.41826       -0.51332        0.52401
H         -4.68321       -3.13384        1.25380
H          0.90463       -0.75366       -2.06857
C          2.21769        0.31363        0.19425
O         -4.53933       -0.25758       -0.86045
H         -5.18612       -1.23659        0.81419
H         -4.58103        0.41059        1.09149
C         -4.42457        1.04152       -1.24857
O         -4.70090        1.98880       -0.54628
N         -3.97830        1.10346       -2.52197
H         -3.49128        0.29844       -2.91305
O         -3.57584        2.32623       -2.98122
H         -2.78055        2.54070       -2.44993
H          3.19974        0.26738        0.68117
H          2.40584        0.50603       -0.86970
N          0.42656        2.06133       -0.05775
C          1.51413        1.54612        0.77670
C          2.42243        2.79605        0.75959
C          2.20742        3.34487       -0.65131
O          0.98832        2.75063       -1.12123
H          1.16835        1.40377        1.80168
C          3.88004        2.59934        1.12752
H          1.99266        3.50280        1.48484
H          2.10544        4.43846       -0.67009
H          3.00503        3.03810       -1.34371
O          4.46802        3.88140        1.19136
H          3.94759        2.07291        2.09798
H          4.38792        1.97612        0.37112
H          5.42147        3.76690        1.27154
O          2.75202       -2.02311        0.02682
S          3.54409       -1.94964       -1.43978
O          4.70897       -1.09373       -1.19292
O          3.85546       -3.35611       -1.67413
O          2.58084       -1.36370       -2.39834
H         -3.36372       -4.27202        1.30454
H          0.58255       -0.63799        4.32051
H         -1.05702       -3.46309        0.98139
H         -0.27650       -3.04311       -1.35257
