62
ZTX_14_solv.log	Energy: -1483143.1078018
C          0.95448       -1.98004        0.13682
N          0.51253       -2.31937        1.46669
C         -0.08813       -1.43852        2.26443
C         -0.00070       -2.12470       -1.06876
H          1.72943       -2.70543       -0.13155
N         -0.65160       -1.82487        3.39398
H         -0.72992       -2.81250        3.61797
H          0.67554       -3.26155        1.81041
N         -0.15987       -0.15205        1.87292
C         -0.26643        1.30221       -0.02233
C         -1.69529        1.06809        0.63397
C         -1.33144        0.68932        2.07175
O          0.12945        2.62564        0.10056
O         -0.18780        0.85097       -1.32973
H         -2.13488        0.14686        2.58385
H         -1.08051        1.59154        2.64698
O          0.53744       -2.36620       -2.14347
C          1.57530       -0.58786        0.11393
C          0.71660        0.44587        0.86630
N          1.73137        1.26093        1.48771
C          2.93105        0.68524        1.45897
N          2.86488       -0.50025        0.81054
H          1.70177       -0.27000       -0.92881
N          4.01612        1.19116        2.00074
C          3.99406       -1.30681        0.45738
H          4.93142        0.87355        1.66294
H         -0.84560        1.35785       -1.83900
C         -2.58562        0.00588       -0.04366
O          4.57617       -0.92579       -0.77875
H          4.73612       -1.27595        1.26452
H          3.66626       -2.34225        0.32473
C          5.65418       -0.11887       -0.74581
O          6.11322        0.38133        0.26467
N          6.16869        0.01081       -1.98489
H          5.61798       -0.25800       -2.79802
O          7.08422        1.00305       -2.18996
H          7.94951        0.56769       -2.22498
H         -3.55580        0.15239        0.44686
H         -2.73156        0.26639       -1.10068
N         -1.33235       -1.98224       -0.95807
C         -2.28331       -1.49875        0.04374
C         -3.49543       -2.36745       -0.35919
C         -3.35857       -2.44438       -1.88044
O         -2.00594       -2.06566       -2.17033
H         -1.97726       -1.81251        1.04272
C         -4.86034       -1.91594        0.12116
H         -3.31442       -3.36641        0.06463
H         -3.54555       -3.45433       -2.27121
H         -4.01260       -1.72530       -2.39510
O         -5.77704       -2.93888       -0.20590
H         -4.82525       -1.73710        1.21218
H         -5.14566       -0.96684       -0.36560
H         -6.66326       -2.61576       -0.00872
O         -2.42948        2.28138        0.74622
S         -3.08094        3.05317       -0.57294
O         -4.30690        2.33878       -0.92842
O         -3.27314        4.39762       -0.04368
O         -2.01378        2.94820       -1.60213
H          3.95644        2.09867        2.45312
H         -0.98749       -1.14312        4.06628
H          1.55031        2.19068        1.85271
H         -0.45219        3.13851       -0.48902
