62
ZTX_50_solv.log	Energy: -1483140.7061160
C          1.07448       -1.94099        0.04907
N          0.60951       -2.36537        1.34682
C         -0.06237       -1.56245        2.17029
C          0.17565       -2.09458       -1.19891
H          1.90208       -2.60599       -0.21807
N         -0.63486       -2.04129        3.25970
H         -0.67085       -3.04288        3.42426
H          0.80959       -3.31546        1.64688
N         -0.19135       -0.26030        1.84768
C         -0.31593        1.31497        0.04802
C         -1.74313        0.94473        0.60593
C         -1.42680        0.49451        2.03515
O         -0.10848        2.66035        0.32656
O         -0.14021        1.03088       -1.29012
H         -2.21720       -0.13470        2.46189
H         -1.26786        1.36767        2.68329
O          0.76425       -2.27282       -2.25990
C          1.61307       -0.51526        0.11089
C          0.68647        0.42880        0.90209
N          1.64807        1.24758        1.60008
C          2.87348        0.72668        1.57879
N          2.88764       -0.40227        0.83410
H          1.73787       -0.13240       -0.91028
N          3.91001        1.23730        2.20398
C          4.07410       -1.09338        0.42749
H          4.85572        0.98328        1.89870
H         -0.85236        1.52675       -1.74738
C         -2.52959       -0.13279       -0.17341
O          4.66539       -0.52695       -0.73242
H          4.79207       -1.11874        1.25578
H          3.81599       -2.12138        0.15748
C          5.69898        0.30997       -0.55915
O          6.13644        0.65245        0.52877
N          6.24543        0.70765       -1.72512
H          6.88747        1.49731       -1.70419
O          5.58544        0.51054       -2.90595
H          6.02550       -0.23664       -3.33921
H         -3.52705       -0.05920        0.27530
H         -2.63091        0.17156       -1.22289
N         -1.16267       -2.01436       -1.13192
C         -2.16030       -1.62010       -0.13725
C         -3.32003       -2.53053       -0.61026
C         -3.14313       -2.53087       -2.12706
O         -1.79787       -2.09397       -2.36485
H         -1.86574       -1.96421        0.85372
C         -4.71276       -2.15104       -0.15401
H         -3.09488       -3.53552       -0.22343
H         -3.28442       -3.52821       -2.56654
H         -3.80925       -1.81274       -2.62748
O         -4.71619       -2.10657        1.25724
H         -5.00891       -1.18016       -0.58939
H         -5.42442       -2.90494       -0.53595
H         -5.57775       -1.78396        1.54521
O         -2.55429        2.10004        0.72619
S         -3.23704        2.83983       -0.60161
O         -4.55986        2.22272       -0.74071
O         -3.25467        4.23766       -0.18014
O         -2.33643        2.55222       -1.74027
H          3.78571        2.10125        2.72341
H         -1.02900       -1.41637        3.95530
H          1.39326        2.09260        2.10290
H          0.70394        2.93477       -0.12209
