62
ZTX_314_solv.log	Energy: -1483137.8375130
C         -1.30685        1.78241        0.32005
N         -0.78456        2.16831        1.60713
C         -0.00758        1.36370        2.32878
C         -0.48849        2.05338       -0.96441
H         -2.18995        2.40423        0.13679
N          0.60671        1.80913        3.40927
H          0.58379        2.79742        3.64269
H         -1.03306        3.07855        1.98401
N          0.18643        0.09745        1.90977
C          0.31609       -1.29496       -0.04510
C          1.74645       -0.88761        0.48901
C          1.47867       -0.57036        1.96357
O          0.08878       -2.65020        0.03729
O          0.16587       -0.81847       -1.34047
H          2.24890        0.07673        2.39993
H          1.41987       -1.50239        2.54252
O         -1.14248        2.21802       -1.98773
C         -1.75219        0.32378        0.34450
C         -0.69288       -0.59922        0.97007
N         -1.52540       -1.55496        1.66073
C         -2.76731       -1.10761        1.82325
N         -2.93074        0.07820        1.18966
H         -1.96531        0.00406       -0.68405
N         -3.69620       -1.74102        2.50126
C         -4.22413        0.63139        0.90457
H         -4.65054       -1.40026        2.54335
H         -0.55916       -1.30245       -1.76156
C          2.42534        0.28047       -0.24863
O         -4.90836       -0.09356       -0.10226
H         -4.84956        0.58059        1.80228
H         -4.11370        1.68182        0.61619
C         -4.80642        0.35372       -1.36780
O         -4.17306        1.33488       -1.70357
N         -5.53925       -0.38772       -2.23086
H         -5.33944       -0.27469       -3.22267
O         -5.98811       -1.62924       -1.86645
H         -6.93930       -1.53314       -1.70922
H          3.45202        0.25063        0.13431
H          2.47632        0.05315       -1.31989
N          0.85473        2.11745       -0.96415
C          1.94637        1.72865       -0.07055
C          2.99690        2.76362       -0.54048
C          2.71690        2.85969       -2.03911
O          1.40243        2.31838       -2.22641
H          1.69822        1.97258        0.96262
C          4.44155        2.46835       -0.19802
H          2.71994        3.71527       -0.06295
H          2.74098        3.89572       -2.40539
H          3.40646        2.24457       -2.63570
O          4.53697        2.31307        1.20225
H          4.78527        1.56309       -0.72918
H          5.06590        3.30714       -0.55488
H          5.43677        2.04002        1.41406
O          2.63381       -2.00062        0.53311
S          3.29967       -2.77907       -0.77494
O          4.12551       -1.81195       -1.50019
O          4.03711       -3.83726       -0.09383
O          2.13109       -3.25085       -1.55515
H         -3.47115       -2.60879        2.97784
H          1.08042        1.16830        4.03736
H         -1.16224       -2.40928        2.07253
H          0.75084       -3.07949       -0.55253
