62
ZTX_332_solv.log	Energy: -1483141.0559400
C          1.57217        1.03232        0.75228
N          1.77490        1.29241       -0.65267
C          1.16588        0.58418       -1.60387
C          0.44043        1.73381        1.53363
H          2.45507        1.42440        1.26795
N          1.24655        0.94542       -2.87090
H          1.68179        1.82679       -3.12601
H          2.50263        1.95004       -0.92140
N          0.41802       -0.47630       -1.24114
C         -0.88777       -1.46754        0.49627
C         -1.79482       -0.79614       -0.62532
C         -0.86583       -0.81313       -1.84130
O         -1.06081       -2.84330        0.52036
O         -1.05555       -0.89543        1.74801
H         -1.15554       -0.08370       -2.60688
H         -0.84591       -1.81720       -2.28778
O          0.66415        1.93358        2.72340
C          1.50745       -0.47145        1.01208
C          0.58801       -1.20190        0.01817
N          1.33006       -2.42548       -0.20459
C          2.62184       -2.26829        0.09787
N          2.79493       -1.13241        0.79961
H          1.16782       -0.64921        2.04059
N          3.57739       -3.11569       -0.21286
C          3.98020       -0.72500        1.49528
H          4.54420       -2.78469       -0.18208
H         -1.98785       -1.03639        1.99303
C         -2.32615        0.61740       -0.31345
O          4.64295        0.32384        0.81210
H          3.69726       -0.30572        2.46719
H          4.64684       -1.58101        1.65341
C          5.38572       -0.02132       -0.24970
O          5.67674       -1.16944       -0.54079
N          5.75078        1.04355       -0.99195
H          6.49697        0.92339       -1.67390
O          5.56925        2.31461       -0.52153
H          4.79835        2.66681       -0.99223
H         -3.07335        0.79452       -1.09547
H         -2.88332        0.60235        0.63269
N         -0.72385        2.07783        0.96239
C         -1.40897        1.84869       -0.30956
C         -2.17815        3.19117       -0.39156
C         -2.52176        3.46613        1.07292
O         -1.64747        2.62691        1.84162
H         -0.68949        1.84775       -1.12983
C         -3.34124        3.30029       -1.36344
H         -1.43453        3.93153       -0.71964
H         -2.35675        4.51721        1.35001
H         -3.54971        3.17453        1.32329
O         -4.48405        2.63809       -0.86763
H         -3.55281        4.37276       -1.52174
H         -3.02536        2.88535       -2.33776
H         -5.15437        2.63881       -1.56007
O         -2.88826       -1.63256       -0.98659
S         -4.18452       -1.89223        0.01828
O         -5.05014       -0.71736       -0.07755
O         -4.73283       -3.11946       -0.54621
O         -3.56222       -2.06136        1.35784
H          3.35421       -3.91539       -0.79743
H          0.90621        0.33547       -3.60721
H          0.99147       -3.15226       -0.82828
H         -1.95896       -2.99605        0.86564
