62
ZTX_480_solv.log	Energy: -1483139.3254822
C         -1.57790        0.84754       -0.79317
N         -1.76577        1.18976        0.59466
C         -1.14510        0.53540        1.57468
C         -0.46087        1.51293       -1.62267
H         -2.47536        1.20243       -1.31070
N         -1.23085        0.95183        2.82450
H         -1.67907        1.83742        3.03904
H         -2.53566        1.81289        0.82769
N         -0.37778       -0.52566        1.25826
C          0.96520       -1.51291       -0.46797
C          1.84382       -0.78647        0.62876
C          0.92268       -0.79014        1.85297
O          1.19310       -2.86999       -0.50892
O          1.18916       -0.90839       -1.69774
H          1.19337       -0.02352        2.58848
H          0.94607       -1.77724        2.33570
O         -0.67468        1.59620       -2.82761
C         -1.50469       -0.66538       -0.96584
C         -0.52814       -1.31136        0.03174
N         -1.19695       -2.56075        0.31369
C         -2.49408       -2.49329        0.01324
N         -2.76393       -1.35801       -0.66353
H         -1.20602       -0.89170       -1.99787
N         -3.37703       -3.41488        0.32328
C         -4.00971       -1.12324       -1.35117
H         -4.35639       -3.31194        0.07957
H          0.87662       -1.50409       -2.39371
C          2.33429        0.62667        0.26212
O         -5.04567       -0.78921       -0.44896
H         -3.85975       -0.33596       -2.09884
H         -4.35098       -2.03477       -1.85841
C         -5.18111        0.50216       -0.07818
O         -4.58307        1.43250       -0.57592
N         -6.05459        0.58556        0.95078
H         -6.68541       -0.19160        1.13875
O         -6.55386        1.82427        1.24422
H         -6.10693        2.10733        2.05594
H          3.06219        0.84884        1.05221
H          2.89593        0.57933       -0.67861
N          0.67062        1.98030       -1.06847
C          1.37873        1.82991        0.20519
C          2.13475        3.17768        0.19817
C          2.46508        3.36173       -1.28286
O          1.57273        2.49343       -1.99380
H          0.66987        1.85496        1.03497
C          3.33692        3.32008        1.11968
H          1.39826        3.94135        0.49370
H          2.31544        4.39516       -1.62519
H          3.49004        3.04215       -1.52324
O          3.89008        4.61568        1.03219
H          3.04219        3.07112        2.15546
H          4.13699        2.62570        0.82444
H          3.21808        5.24671        1.31804
O          2.95303       -1.58232        1.03291
S          4.30240       -1.91820        0.12322
O          5.00104       -0.65496       -0.12134
O          4.98943       -2.84385        1.01690
O          3.76766       -2.54012       -1.11096
H         -3.09039       -4.23365        0.85070
H         -0.87963        0.38179        3.58703
H         -0.78841       -3.28053        0.90220
H          2.13375       -2.98210       -0.77696
