62
ZTX_142_solv.log	Energy: -1483142.5064281
C          1.40520        1.20874        0.73236
N          1.52017        1.54166       -0.66548
C          0.89612        0.84757       -1.61515
C          0.26794        1.80639        1.59133
H          2.28669        1.63000        1.22797
N          0.86971        1.28345       -2.86123
H          1.22444        2.20750       -3.08866
H          2.12923        2.30867       -0.93566
N          0.24296       -0.27972       -1.27150
C         -0.93493       -1.40015        0.49345
C         -1.91920       -0.75023       -0.55771
C         -1.05361       -0.65449       -1.81717
O         -1.02672       -2.77338        0.52322
O         -1.17194       -0.83264        1.73887
H         -1.42513        0.09757       -2.52387
H         -1.00844       -1.63134       -2.31828
O          0.52630        1.95366        2.78132
C          1.43707       -0.30517        0.92632
C          0.51444       -1.04700       -0.05523
N          1.30630       -2.21742       -0.35826
C          2.59116       -2.03925       -0.04723
N          2.74795       -0.89746        0.65908
H          1.15110       -0.53142        1.96191
N          3.56464       -2.86460       -0.35342
C          3.88384       -0.58312        1.48149
H          4.53213       -2.54000       -0.25078
H         -0.76927       -1.39735        2.41431
C         -2.51848        0.60955       -0.15474
O          4.72384        0.39749        0.90047
H          3.52262       -0.13873        2.41538
H          4.45399       -1.49145        1.71230
C          5.66836       -0.02632        0.04021
O          5.86349       -1.19112       -0.25305
N          6.33366        1.03075       -0.47061
H          6.28769        1.93412       -0.00253
O          7.49421        0.77666       -1.14514
H          7.28563        0.87689       -2.08628
H         -3.30484        0.76295       -0.90279
H         -3.01581        0.51368        0.81781
N         -0.93007        2.13441        1.07886
C         -1.67176        1.89246       -0.15919
C         -2.53855        3.17448       -0.15241
C         -2.82481        3.36870        1.33498
O         -1.83763        2.59223        2.02743
H         -1.00601        1.95992       -1.01959
C         -3.77573        3.16273       -1.02460
H         -1.88264        3.98661       -0.49968
H         -2.74472        4.42006        1.64516
H         -3.80916        2.97471        1.62780
O         -3.37573        2.87911       -2.34870
H         -4.50084        2.41716       -0.65335
H         -4.26554        4.15050       -0.95342
H         -4.16876        2.78530       -2.88834
O         -2.96560       -1.64208       -0.92787
S         -4.23754       -2.11030        0.03203
O         -5.03214       -0.91758        0.33241
O         -4.88115       -3.07789       -0.84974
O         -3.59649       -2.70408        1.22889
H          3.36585       -3.67931       -0.92548
H          0.51775        0.69653       -3.61018
H          0.97259       -2.95770       -0.96819
H         -1.94088       -2.97995        0.82471
