62
ZTX_357_solv.log	Energy: -1483135.9266086
C         -1.47948        1.15055        1.06211
N         -0.77888        0.90479        2.29722
C          0.13984       -0.05061        2.42450
C         -0.89888        2.13508        0.02161
H         -2.41580        1.65499        1.32281
N          0.88731       -0.11735        3.51118
H          0.84356        0.62019        4.20796
H         -1.01566        1.46662        3.11016
N          0.33236       -0.91773        1.40917
C          0.25960       -1.08759       -0.97401
C          1.71720       -0.80011       -0.45384
C          1.65930       -1.35082        0.98094
O          0.19714       -2.33688       -1.56042
O         -0.11986       -0.08256       -1.85030
H          2.44020       -0.93887        1.62805
H          1.73431       -2.44599        0.98497
O         -1.71563        2.68863       -0.70539
C         -1.82939       -0.16760        0.38357
C         -0.63623       -1.13654        0.33071
N         -1.30374       -2.40579        0.48890
C         -2.52760       -2.26465        0.99210
N         -2.84280       -0.95292        1.10612
H         -2.18335        0.03863       -0.63600
N         -3.30788       -3.26825        1.31949
C         -4.18506       -0.48960        1.31925
H         -4.25934       -3.12375        1.63951
H         -0.87172       -0.39706       -2.37275
C          2.19588        0.66151       -0.53846
O         -4.98303       -0.61469        0.15694
H         -4.66172       -1.09637        2.09673
H         -4.16010        0.55127        1.65900
C         -5.12811        0.47992       -0.62436
O         -4.61706        1.55578       -0.40754
N         -5.96976        0.19260       -1.64573
H         -6.13154       -0.77939       -1.90237
O         -6.00396        1.07970       -2.68698
H         -6.83551        1.56825       -2.59476
H          3.26880        0.57324       -0.32952
H          2.09763        0.98634       -1.58308
N          0.41862        2.38312       -0.07483
C          1.66099        1.76167        0.38830
C          2.55368        3.02132        0.40370
C          2.03220        3.81391       -0.79604
O          0.74658        3.25795       -1.10380
H          1.55505        1.42855        1.42198
C          4.05352        2.80301        0.40432
H          2.30323        3.56787        1.32502
H          1.92270        4.88568       -0.57896
H          2.66208        3.68359       -1.68822
O          4.65987        4.06512        0.58649
H          4.32276        2.10242        1.21680
H          4.37794        2.34993       -0.54859
H          5.61041        3.95611        0.47047
O          2.55786       -1.52502       -1.34135
S          3.96222       -2.30459       -0.84657
O          3.49787       -3.58497       -0.30060
O          4.67349       -2.40052       -2.11704
O          4.56548       -1.40996        0.15070
H         -2.96166       -4.21993        1.24467
H          1.48958       -0.91617        3.68106
H         -0.84098       -3.29630        0.33472
H          1.07212       -2.49325       -1.95729
