62
ZTX_437_solv.log	Energy: -1483138.7114831
C         -1.59173        0.87411       -0.75186
N         -1.78336        1.19654        0.64148
C         -1.14810        0.55141        1.61917
C         -0.50064        1.57606       -1.58343
H         -2.50167        1.21142       -1.25905
N         -1.23480        0.96667        2.86924
H         -1.69425        1.84596        3.08609
H         -2.55854        1.81090        0.88004
N         -0.36675       -0.49880        1.30013
C          0.96421       -1.53271       -0.39679
C          1.84790       -0.75746        0.65767
C          0.94239       -0.75053        1.89287
O          1.27425       -2.88108       -0.27615
O          1.10688       -1.08459       -1.69400
H          1.21074        0.03232        2.61210
H          0.97375       -1.72802        2.39457
O         -0.73435        1.69131       -2.78307
C         -1.48383       -0.63287       -0.94287
C         -0.52687       -1.28063        0.07404
N         -1.21070       -2.52550        0.35311
C         -2.49988       -2.46195        0.01105
N         -2.74653       -1.33947       -0.68945
H         -1.13879       -0.84824       -1.96229
N         -3.39118       -3.37967        0.30765
C         -3.97325       -1.10476       -1.41026
H         -4.36367       -3.27877        0.03709
H          2.06413       -1.17775       -1.88616
C          2.29738        0.66744        0.26310
O         -5.03920       -0.80078       -0.53306
H         -3.80726       -0.30087       -2.13656
H         -4.28725       -2.01080       -1.94436
C         -5.21254        0.48343       -0.15237
O         -4.58683        1.42612       -0.58943
N         -6.21999        0.55495        0.74517
H         -6.51859       -0.28036        1.24470
O         -6.36713        1.73053        1.42621
H         -7.13170        2.17698        1.03193
H          3.06855        0.90879        1.00284
H          2.81367        0.62853       -0.70473
N          0.63667        2.02477       -1.03340
C          1.33809        1.86470        0.24081
C          2.06187        3.23055        0.25901
C          2.44884        3.40057       -1.20643
O          1.52435        2.58935       -1.94518
H          0.62665        1.87052        1.06776
C          3.16283        3.47688        1.28697
H          1.27919        3.96901        0.49040
H          2.36534        4.44198       -1.54712
H          3.45952        3.02423       -1.42517
O          4.35380        2.74125        1.12075
H          3.37396        4.56050        1.29603
H          2.76892        3.21877        2.28165
H          4.80082        3.04268        0.32141
O          2.99173       -1.51543        1.01091
S          4.29294       -1.68835       -0.01501
O          5.21741       -0.61480        0.36150
O          4.74970       -3.03471        0.31885
O          3.75823       -1.54250       -1.38759
H         -3.11939       -4.19282        0.85144
H         -0.87249        0.40118        3.63001
H         -0.83359       -3.21849        0.99342
H          0.80056       -3.35332       -0.97553
