62
ZTX_187_solv.log	Energy: -1483146.1455877
C          1.56821        0.88092        1.04349
N          1.82801        1.28497       -0.31645
C          1.26387        0.66117       -1.35054
C          0.40512        1.51149        1.83661
H          2.42604        1.21996        1.63394
N          1.43028        1.11601       -2.57880
H          1.90904        1.99774       -2.73582
H          2.66825        1.85059       -0.49121
N          0.46982       -0.40267       -1.11522
C         -0.91756       -1.50779        0.48490
C         -1.76707       -0.73328       -0.61563
C         -0.79185       -0.66057       -1.79427
O         -1.12786       -2.87614        0.41121
O         -1.11033       -1.01539        1.76657
H         -1.03706        0.14345       -2.49880
H         -0.77075       -1.61988       -2.33074
O          0.55562        1.56475        3.05215
C          1.49579       -0.64180        1.14637
C          0.57671       -1.24814        0.07384
N          1.28584       -2.46985       -0.24425
C          2.58404       -2.35389        0.05032
N          2.77895       -1.29069        0.85287
H          1.15287       -0.92763        2.14910
N          3.51631       -3.18530       -0.35805
C          4.01563       -0.87043        1.44227
H          4.49432       -2.91121       -0.28822
H         -2.05496       -1.13302        1.97083
C         -2.28091        0.66227       -0.21295
O          4.53363        0.26271        0.76466
H          3.83364       -0.53801        2.47013
H          4.73894       -1.69488        1.45481
C          5.11700        0.04422       -0.42388
O          5.49999       -1.04124       -0.81319
N          5.28629        1.19341       -1.12451
H          5.54586        1.10606       -2.10487
O          4.49756        2.28127       -0.85049
H          5.01532        2.87255       -0.28199
H         -2.96963        0.91260       -1.02836
H         -2.88839        0.59172        0.69927
N         -0.70016        1.98314        1.23529
C         -1.33596        1.86452       -0.07597
C         -2.09159        3.21568       -0.08087
C         -2.48644        3.37925        1.38683
O         -1.65878        2.46508        2.11882
H         -0.58717        1.91072       -0.86684
C         -3.24949        3.34317       -1.04764
H         -1.34435        3.98087       -0.33815
H         -2.31815        4.40122        1.75498
H         -3.53009        3.08929        1.57724
O         -2.76738        3.08363       -2.34933
H         -4.05913        2.64514       -0.77095
H         -3.66376        4.36429       -0.96691
H         -3.52132        3.06068       -2.94960
O         -2.85879       -1.51532       -1.08485
S         -4.20312       -1.81080       -0.15562
O         -5.04024       -0.61227       -0.21446
O         -4.75028       -2.98691       -0.82068
O         -3.64411       -2.07729        1.19571
H          3.26791       -3.91310       -1.02162
H          1.11971        0.57501       -3.37904
H          0.93100       -3.13392       -0.92613
H         -2.04102       -3.02428        0.71643
