62
ZTX_490_solv.log	Energy: -1483135.7713878
C         -1.18647        1.82885        0.37970
N         -0.68755        2.15029        1.69342
C          0.01726        1.28491        2.41867
C         -0.32269        2.09232       -0.87321
H         -2.03655        2.49369        0.19272
N          0.60931        1.66510        3.53580
H          0.62423        2.64513        3.80215
H         -0.90523        3.05977        2.09075
N          0.16304        0.02255        1.96894
C          0.31123       -1.30678       -0.02854
C          1.73491       -0.98807        0.57921
C          1.41695       -0.71180        2.05243
O          0.01789       -2.65165       -0.00289
O          0.23885       -0.78145       -1.31113
H          2.19572       -0.12108        2.54894
H          1.28543       -1.66069        2.59071
O         -0.94551        2.31552       -1.90580
C         -1.69436        0.39220        0.33626
C         -0.70612       -0.59813        0.96936
N         -1.61185       -1.53502        1.59224
C         -2.83980       -1.04041        1.71057
N         -2.92183        0.17737        1.11506
H         -1.88549        0.11670       -0.70937
N         -3.82945       -1.65207        2.31569
C         -4.16218        0.71578        0.65309
H         -4.75898       -1.24809        2.35335
H         -0.49740       -1.20562       -1.77515
C          2.50028        0.16717       -0.09217
O         -4.53935       -0.01205       -0.51019
H         -4.93374        0.63315        1.43037
H         -4.03286        1.77816        0.41078
C         -5.65466        0.39957       -1.12280
O         -6.35229        1.31345       -0.72639
N         -5.89743       -0.28254       -2.27046
H         -6.84107       -0.22378       -2.64783
O         -5.25919       -1.47397       -2.50139
H         -4.59284       -1.29016       -3.18017
H          3.50400        0.08725        0.34324
H          2.60338       -0.04684       -1.16282
N          1.02037        2.06747       -0.84601
C          2.07264        1.63382        0.07646
C          3.17672        2.62037       -0.36488
C          2.93683        2.73473       -1.87113
O          1.60529        2.25078       -2.09284
H          1.80188        1.88508        1.10320
C          4.60484        2.27803        0.01087
H          2.93687        3.58500        0.10661
H          3.01305        3.76912       -2.23426
H          3.61520        2.09180       -2.45115
O          5.40522        3.38421       -0.34936
H          4.66118        2.07333        1.09639
H          4.93597        1.36842       -0.52001
H          6.32843        3.13164       -0.23746
O          2.56667       -2.14296        0.62167
S          3.25003       -2.90943       -0.68509
O          4.18149       -1.97182       -1.31546
O          3.87215       -4.04720       -0.01732
O          2.09768       -3.25964       -1.54857
H         -3.67223       -2.55000        2.76296
H          1.01847        0.98152        4.16405
H         -1.30286       -2.40705        2.01172
H          0.67933       -3.08884       -0.58696
