62
ZTX_498_solv.log	Energy: -1483137.4470515
C         -1.34881        1.59139        0.74443
N         -0.81928        1.75140        2.07741
C         -0.03949        0.84000        2.65645
C         -0.54505        2.08318       -0.48150
H         -2.23363        2.23272        0.67847
N          0.58707        1.11000        3.78703
H          0.57004        2.04953        4.17238
H         -1.06041        2.58934        2.59926
N          0.14245       -0.34706        2.04447
C          0.22796       -1.47088       -0.06064
C          1.67075       -1.10847        0.47569
C          1.43139       -1.02958        1.98590
O          0.07371       -2.85414       -0.06781
O         -0.06809       -0.92782       -1.29430
H          2.20985       -0.46391        2.51076
H          1.36852       -2.03843        2.41739
O         -1.20836        2.43800       -1.44930
C         -1.79422        0.15091        0.51722
C         -0.76025       -0.87483        1.01736
N         -1.61928       -1.89400        1.56877
C         -2.86702       -1.46976        1.73913
N         -3.00593       -0.20672        1.27227
H         -1.96539       -0.01115       -0.55539
N         -3.81830       -2.19073        2.28658
C         -4.28703        0.37348        0.98287
H         -4.77429       -1.85799        2.34812
H          0.63125       -1.25002       -1.89835
C          2.33531        0.16728       -0.07838
O         -4.85321       -0.16913       -0.19554
H         -4.98113        0.15657        1.80172
H         -4.18358        1.46012        0.89289
C         -4.75351        0.55500       -1.33459
O         -4.23592        1.64612       -1.41667
N         -5.36790       -0.11263       -2.34047
H         -5.52222       -1.11520       -2.25083
O         -5.12076        0.32262       -3.61410
H         -5.93090        0.76609       -3.90690
H          3.37134        0.06459        0.26617
H          2.36341        0.11965       -1.17451
N          0.79802        2.11090       -0.49621
C          1.88595        1.57952        0.32362
C          2.95653        2.64675        0.00462
C          2.68606        2.94039       -1.46939
O          1.33474        2.52727       -1.71070
H          1.64369        1.67469        1.38235
C          4.40285        2.29776        0.33343
H          2.69523        3.53489        0.59872
H          2.78477        4.00665       -1.71592
H          3.33550        2.34969       -2.13377
O          5.24526        3.42715        0.24829
H          4.45682        1.93399        1.37111
H          4.76791        1.48883       -0.32276
H          5.37466        3.63794       -0.68409
O          2.53503       -2.21960        0.26161
S          3.24090       -2.53487       -1.23895
O          4.47840       -1.75641       -1.25720
O          3.41137       -3.98055       -1.14532
O          2.23650       -2.09496       -2.22846
H         -3.60723       -3.11990        2.63765
H          1.05638        0.37683        4.30889
H         -1.28395       -2.82198        1.80844
H          0.94316       -3.25489        0.09128
