62
ZTX_313_solv.log	Energy: -1483140.1860927
C          1.39827        1.22989        0.67441
N          1.48519        1.56424       -0.72568
C          0.83742        0.87760       -1.66467
C          0.28843        1.83879        1.56098
H          2.29428        1.64393        1.14936
N          0.77745        1.32289       -2.90628
H          1.12737        2.24802       -3.13688
H          2.08320        2.33657       -1.00527
N          0.19444       -0.25310       -1.31333
C         -0.92841       -1.43127        0.44780
C         -1.94439       -0.75259       -0.55229
C         -1.11392       -0.62631       -1.83206
O         -0.99489       -2.80603        0.41019
O         -1.15367       -0.92910        1.72269
H         -1.50717        0.13738       -2.51465
H         -1.07715       -1.59262       -2.35388
O          0.58602        2.01075        2.73891
C          1.42513       -0.28500        0.87008
C          0.50521       -1.03193       -0.11394
N          1.31651       -2.17969       -0.44737
C          2.59516       -2.00510       -0.11346
N          2.73885       -0.87628        0.61578
H          1.13039       -0.50818        1.90411
N          3.57522       -2.82221       -0.42045
C          3.85921       -0.57649        1.46417
H          4.54129       -2.49994       -0.29254
H         -0.71753       -1.50999        2.36271
C         -2.53198        0.59702       -0.09544
O          4.72581        0.39297        0.90310
H          3.47922       -0.12807        2.38874
H          4.41274       -1.49196        1.70770
C          5.72041       -0.04823        0.11115
O          5.89682       -1.21396       -0.19246
N          6.51291        0.97997       -0.25252
H          6.19152        1.93996       -0.14459
O          7.40687        0.76282       -1.26171
H          8.27214        0.65890       -0.83720
H         -3.37509        0.74166       -0.78168
H         -2.96434        0.48329        0.90524
N         -0.93196        2.13481        1.08662
C         -1.69769        1.88822       -0.13457
C         -2.56634        3.16744       -0.10685
C         -2.86775        3.30610        1.38036
O         -1.81270        2.60637        2.05612
H         -1.05330        1.95722       -1.01135
C         -3.79217        3.21410       -1.00488
H         -1.90107        3.98917       -0.41209
H         -2.87623        4.35231        1.71574
H         -3.81754        2.82424        1.65899
O         -3.45781        3.13409       -2.37418
H         -4.52176        2.43692       -0.71856
H         -4.28953        4.18354       -0.85083
H         -3.26342        2.21531       -2.59518
O         -3.00450       -1.63325       -0.91124
S         -4.23110       -2.15416        0.08207
O         -3.53839       -2.88910        1.16657
O         -4.95666       -0.97442        0.55630
O         -4.96669       -3.00554       -0.84571
H          3.38591       -3.62971       -1.00570
H          0.41465        0.73768       -3.65149
H          0.98752       -2.92140       -1.05775
H         -1.89991       -3.05023        0.71316
