62
ZTX_215_solv.log	Energy: -1483137.2197362
C         -1.41469        1.40573        0.99231
N         -0.67084        1.31884        2.22556
C          0.31343        0.43879        2.40053
C         -0.90751        2.30571       -0.15756
H         -2.36811        1.88845        1.23098
N          1.09613        0.50277        3.46216
H          1.02421        1.28677        4.10373
H         -0.92895        1.92729        2.99721
N          0.53304       -0.48183        1.44298
C          0.36276       -0.95745       -0.89597
C          1.84091       -0.58988       -0.45867
C          1.85971       -0.93611        1.04269
O          0.28135       -2.21282       -1.46778
O         -0.19997       -0.04288       -1.76569
H          2.64481       -0.39680        1.58536
H          1.96811       -2.01050        1.23244
O         -1.77072        2.77943       -0.88776
C         -1.71147        0.01072        0.45117
C         -0.46324       -0.88698        0.45428
N         -1.03770       -2.16606        0.79797
C         -2.25033       -2.03919        1.33207
N         -2.65775       -0.75007        1.28153
H         -2.09598        0.09420       -0.57315
N         -2.94407       -3.03733        1.82889
C         -4.02797       -0.36161        1.46514
H         -3.89491       -2.91666        2.16045
H          0.31167       -0.04111       -2.58685
C          2.24915        0.87740       -0.69787
O         -4.85040       -0.75808        0.38296
H         -4.43291       -0.85350        2.35623
H         -4.07943        0.72249        1.61238
C         -5.00505        0.11810       -0.63577
O         -4.53633        1.23456       -0.66105
N         -5.72116       -0.46561       -1.62525
H         -6.28690       -1.28645       -1.41831
O         -6.22753        0.35760       -2.59350
H         -5.66347        0.23298       -3.37123
H          3.32695        0.85764       -0.49623
H          2.13110        1.10068       -1.76777
N          0.39872        2.55241       -0.35360
C          1.67707        2.03604        0.13003
C          2.50345        3.33606       -0.00740
C          1.94091        3.94360       -1.28934
O          0.65973        3.32551       -1.48017
H          1.62027        1.80807        1.19389
C          4.01501        3.19130        0.02454
H          2.20612        3.96952        0.84305
H          1.81190        5.03280       -1.22041
H          2.55271        3.70279       -2.17148
O          4.45159        2.47994        1.16299
H          4.37361        2.63824       -0.85588
H          4.46802        4.19734       -0.02353
H          4.16044        2.96199        1.94698
O          2.75605       -1.29995       -1.28388
S          3.51547       -2.70241       -0.83947
O          2.39593       -3.62910       -0.53441
O          4.25222       -3.02062       -2.05505
O          4.33255       -2.37358        0.33063
H         -2.53974       -3.96857        1.85115
H          1.75229       -0.24255        3.67150
H         -0.51761       -3.03835        0.76519
H          0.98496       -2.81339       -1.13560
