62
ZTX_201_solv.log	Energy: -1483135.9619123
C         -1.54938        1.38367        0.78411
N         -1.08142        1.47940        2.14529
C         -0.28207        0.57055        2.70168
C         -0.74037        1.99516       -0.37915
H         -2.47237        1.97149        0.72677
N          0.27639        0.79599        3.87666
H          0.19513        1.70708        4.31796
H         -1.38532        2.26947        2.70760
N         -0.00769       -0.56475        2.02820
C          0.28079       -1.48772       -0.16563
C          1.65788       -1.10447        0.49783
C          1.32303       -1.16452        1.99097
O          0.26976       -2.86850       -0.30994
O          0.02505       -0.84067       -1.35645
H          2.03301       -0.60043        2.60681
H          1.29744       -2.20846        2.33263
O         -1.39558        2.35505       -1.35242
C         -1.87845       -0.06193        0.42979
C         -0.80879       -1.05356        0.90597
N         -1.62983       -2.17357        1.30468
C         -2.91472       -1.84003        1.43544
N         -3.10869       -0.55526        1.06189
H         -1.97672       -0.15402       -0.66044
N         -3.83704       -2.66209        1.87833
C         -4.37578       -0.00137        0.65619
H         -4.80778       -2.38390        1.96953
H          0.78062       -1.07418       -1.93636
C          2.26647        0.25863        0.09471
O         -4.49266       -0.09636       -0.74928
H         -5.19976       -0.55483        1.11696
H         -4.44551        1.04682        0.96849
C         -4.50747        1.05029       -1.45881
O         -4.72927        2.14851       -0.99266
N         -4.31337        0.82370       -2.78191
H         -4.08808        1.64212       -3.34448
O         -3.67614       -0.32399       -3.18079
H         -4.35904       -0.88651       -3.57482
H          3.26442        0.20794        0.54731
H          2.41716        0.27701       -0.99241
N          0.59679        2.09061       -0.34768
C          1.68018        1.61426        0.51290
C          2.67902        2.77136        0.27917
C          2.44221        3.12091       -1.18993
O          1.15878        2.57273       -1.52212
H          1.37176        1.64906        1.55872
C          4.14085        2.52100        0.61980
H          2.32987        3.60859        0.90361
H          2.42990        4.20436       -1.37162
H          3.18012        2.64707       -1.85429
O          4.91885        3.67567        0.38955
H          4.22438        2.17443        1.66594
H          4.56012        1.73588       -0.02630
H          4.60320        4.37081        0.97997
O          2.62885       -2.11134        0.27336
S          3.36091       -2.32259       -1.20941
O          4.57872       -1.50766       -1.14892
O          3.58814       -3.76462       -1.21859
O          2.38898       -1.84496       -2.21781
H         -3.58016       -3.60697        2.14792
H          0.76686        0.05605        4.36854
H         -1.23612       -3.05249        1.62954
H         -0.53189       -3.10726       -0.79698
