62
ZTX_334_solv.log	Energy: -1483138.9739326
C          1.07914       -1.91513        0.31169
N          0.62920       -2.17393        1.65681
C          0.00606       -1.25399        2.39022
C          0.14868       -2.17527       -0.89482
H          1.88229       -2.63044        0.10634
N         -0.54531       -1.57431        3.54630
H         -0.60021       -2.54554        3.83819
H          0.82491       -3.08074        2.07120
N         -0.10094        0.00135        1.91268
C         -0.27892        1.28617       -0.11017
C         -1.68764        1.04557        0.56343
C         -1.31831        0.79131        2.02829
O          0.07604        2.61698       -0.12425
O         -0.28825        0.73503       -1.38355
H         -2.09928        0.24708        2.57208
H         -1.12360        1.74693        2.53446
O          0.71459       -2.46306       -1.94392
C          1.65262       -0.50704        0.19729
C          0.75016        0.55141        0.85687
N          1.73086        1.45456        1.40721
C          2.94910        0.92058        1.43892
N          2.92890       -0.32157        0.89823
H          1.79422       -0.27364       -0.86647
N          4.01184        1.50955        1.93957
C          4.09550       -1.08931        0.58205
H          4.94238        1.19422        1.64619
H          0.45286        1.10480       -1.88555
C         -2.53500       -0.08825       -0.04400
O          4.64181       -0.75046       -0.68387
H          4.84321       -0.97125        1.37485
H          3.82144       -2.14630        0.51310
C          5.67715        0.10145       -0.70935
O          6.15951        0.63262        0.27887
N          6.17113        0.27926       -1.95117
H          6.80549        1.06132       -2.10091
O          5.45501       -0.11897       -3.04568
H          5.87385       -0.93492       -3.35896
H         -3.51227        0.05193        0.43413
H         -2.67673        0.10498       -1.11418
N         -1.18826       -2.07897       -0.81268
C         -2.17297       -1.57046        0.14398
C         -3.34625       -2.50944       -0.21944
C         -3.17777       -2.68418       -1.72953
O         -1.83808       -2.26730       -2.02563
H         -1.86458       -1.80839        1.16349
C         -4.74633       -2.08145        0.19487
H         -3.13389       -3.47046        0.27458
H         -3.31483       -3.72558       -2.05278
H         -3.85270       -2.03170       -2.30281
O         -5.69964       -3.06097       -0.15715
H         -4.76398       -1.86653        1.27893
H         -5.04323       -1.16307       -0.33252
H         -5.49180       -3.86745        0.33058
O         -2.46551        2.23789        0.61042
S         -3.16324        3.00990       -0.68564
O         -4.14997        2.10031       -1.27078
O         -3.71860        4.18060       -0.01611
O         -2.02819        3.30388       -1.59199
H          3.91638        2.44936        2.31269
H         -0.89402       -0.85519        4.17138
H          1.51164        2.40159        1.69978
H         -0.58886        3.07492       -0.68897
