62
ZTX_335_solv.log	Energy: -1483137.9743038
C         -1.58151        1.14590        0.95617
N         -1.09987        1.09626        2.31486
C         -0.26023        0.15808        2.74943
C         -0.81095        1.93049       -0.12922
H         -2.52575        1.70148        0.97681
N          0.29474        0.25506        3.94339
H          0.17076        1.09533        4.50019
H         -1.44540        1.78599        2.97639
N          0.05937       -0.86915        1.93519
C          0.34513       -1.51352       -0.35065
C          1.71858       -1.12178        0.32644
C          1.42151       -1.37871        1.80726
O          0.34830       -2.87445       -0.64319
O          0.03004       -0.76328       -1.46472
H          2.11052       -0.85188        2.47737
H          1.46569       -2.45530        2.02331
O         -1.48690        2.37023       -1.05326
C         -1.86175       -0.25857        0.43703
C         -0.74076       -1.25744        0.77022
N         -1.50419       -2.45070        1.03812
C         -2.80370       -2.20674        1.18278
N         -3.05412       -0.88509        1.02916
H         -1.98195       -0.22053       -0.65431
N         -3.69328       -3.13617        1.44513
C         -4.35987       -0.33565        0.77291
H         -4.68119       -2.92562        1.53088
H          0.78085       -0.87848       -2.08146
C          2.26074        0.29896        0.07066
O         -4.60841       -0.29764       -0.61806
H         -5.12803       -0.95653        1.24497
H         -4.42888        0.67321        1.19526
C         -4.56185        0.91439       -1.22735
O         -4.65402        1.97846       -0.65517
N         -4.36764        0.74360       -2.55029
H         -4.46471       -0.16968       -2.98784
O         -4.52934        1.82530       -3.36643
H         -3.64163        2.19344       -3.49775
H          3.28133        0.23731        0.46737
H          2.35307        0.46661       -1.00992
N          0.51880        2.10444       -0.07629
C          1.63553        1.55431        0.69247
C          2.58041        2.77582        0.62596
C          2.29700        3.34203       -0.76603
O          1.04512        2.77285       -1.17385
H          1.34674        1.41939        1.73545
C          4.05809        2.54279        0.90390
H          2.21001        3.48788        1.37987
H          2.21517        4.43779       -0.76855
H          3.04982        3.02943       -1.50453
O          4.77618        3.75695        0.85898
H          4.17738        2.03383        1.87779
H          4.50152        1.89623        0.13247
H          4.43053        4.33349        1.55178
O          2.70762       -2.07267       -0.05373
S          3.49562       -2.00652       -1.54574
O          4.65035       -1.13484       -1.33398
O          3.80391       -3.41948       -1.73627
O          2.49078       -1.46348       -2.48214
H         -3.39181       -4.09677        1.57716
H          0.81705       -0.52077        4.33723
H         -1.08413       -3.37515        1.05019
H          1.24932       -3.21005       -0.51041
