62
ZTX_48_solv.log	Energy: -1483136.7775302
C         -1.57064        1.16694        0.93068
N         -1.09293        1.13118        2.29093
C         -0.25845        0.19388        2.73772
C         -0.78687        1.92554       -0.16348
H         -2.51104        1.72975        0.94045
N          0.29277        0.30071        3.93255
H          0.17025        1.14744        4.47977
H         -1.43686        1.83010        2.94349
N          0.05695       -0.84234        1.93428
C          0.35817       -1.48095       -0.35824
C          1.72726       -1.12965        0.34044
C          1.40985       -1.37806        1.81856
O          0.39954       -2.82965       -0.68425
O          0.06355       -0.69397       -1.45222
H          2.10265       -0.86431        2.49495
H          1.42971       -2.45547        2.03388
O         -1.45298        2.34557       -1.10372
C         -1.85911       -0.24294        0.42985
C         -0.73396       -1.23201        0.76682
N         -1.49274       -2.43150        1.03075
C         -2.78773       -2.18051        1.22105
N         -3.04310       -0.86444        1.04099
H         -1.98915       -0.21816       -0.66077
N         -3.66668       -3.10078        1.54249
C         -4.35358       -0.31866        0.79794
H         -4.65207       -2.88753        1.65078
H          0.82374       -0.81384       -2.05980
C          2.28178        0.29313        0.09706
O         -4.62331       -0.29664       -0.58904
H         -5.11317       -0.93519        1.28909
H         -4.41492        0.69519        1.20928
C         -4.56622        0.90690       -1.21522
O         -4.62961        1.97953       -0.65529
N         -4.39707        0.71662       -2.53873
H         -4.51608       -0.19974       -2.96412
O         -4.55230        1.79138       -3.36521
H         -3.66130        2.14701       -3.50854
H          3.28968        0.22520        0.52487
H          2.41045        0.45100       -0.98131
N          0.54227        2.10194       -0.09871
C          1.65307        1.56199        0.68743
C          2.60311        2.77826        0.59971
C          2.33146        3.31197       -0.80749
O          1.07957        2.73911       -1.20968
H          1.35763        1.44968        1.73128
C          4.07804        2.54562        0.89253
H          2.23083        3.50968        1.33392
H          2.25540        4.40777       -0.83722
H          3.08751        2.97796       -1.53323
O          4.80201        3.75521        0.82349
H          4.18904        2.05950        1.87897
H          4.52315        1.87869        0.13966
H          4.45511        4.34888        1.50100
O          2.72915       -2.06718       -0.00961
S          3.45337       -2.06698       -1.51169
O          4.65131       -1.23656       -1.35000
O          3.71552       -3.48915       -1.70904
O          2.46262       -1.48803       -2.44618
H         -3.36307       -4.06006        1.67978
H          0.81330       -0.47168        4.33521
H         -1.05831       -3.33692        1.18450
H         -0.39045       -3.02871       -1.20690
