62
ZTX_322_solv.log	Energy: -1483136.5093954
C         -1.49399        1.41048       -0.31557
N         -1.42666        1.17446        1.10548
C         -0.69439        0.19684        1.63629
C         -0.47953        2.35044       -1.00243
H         -2.43155        1.94678       -0.49858
N         -0.50098        0.13250        2.94076
H         -0.81012        0.88989        3.54239
H         -1.97469        1.76651        1.72350
N         -0.11181       -0.69684        0.81371
C          0.80412       -1.09561       -1.35711
C          1.92741       -0.81944       -0.28569
C          1.22972       -1.23061        1.02067
O          0.96510       -2.39416       -1.80958
O          0.77624       -0.18590       -2.40092
H          1.69888       -0.79236        1.90807
H          1.21026       -2.32283        1.12881
O         -0.89823        2.95717       -1.98376
C         -1.56148        0.08851       -1.07746
C         -0.55450       -0.95175       -0.55368
N         -1.34018       -2.16760       -0.61378
C         -2.65001       -1.90278       -0.68136
N         -2.84911       -0.59162       -0.92390
H         -1.37875        0.27688       -2.14312
N         -3.60419       -2.79505       -0.56316
C         -4.06815       -0.01439       -1.42125
H         -4.56340       -2.46524       -0.41202
H          1.60716       -0.25580       -2.89325
C          2.45915        0.63030       -0.26439
O         -4.78188        0.69473       -0.42512
H         -3.81451        0.73109       -2.18289
H         -4.70076       -0.78982       -1.87090
C         -5.60019       -0.01328        0.37522
O         -5.79548       -1.21027        0.27962
N         -6.13608        0.79497        1.31432
H         -6.13126        1.80358        1.17237
O         -7.19317        0.30871        2.03078
H         -6.84602        0.10194        2.91159
H          3.38907        0.54760        0.30512
H          2.75430        0.90614       -1.28655
N          0.78446        2.48344       -0.57081
C          1.67892        1.79354        0.36105
C          2.56800        2.99868        0.75077
C          2.67037        3.76792       -0.56413
O          1.56184        3.32448       -1.36059
H          1.13771        1.50688        1.26390
C          3.88525        2.71516        1.45588
H          1.96545        3.59218        1.45376
H          2.60052        4.85559       -0.42102
H          3.58659        3.52679       -1.11908
O          4.87380        2.26560        0.55315
H          4.21480        3.64470        1.95344
H          3.70289        1.97024        2.24967
H          5.52863        1.76486        1.05199
O          3.03503       -1.62881       -0.64295
S          4.07921       -2.26783        0.48515
O          3.40374       -3.46862        0.99416
O          5.24950       -2.53385       -0.34897
O          4.26472       -1.22200        1.50541
H         -3.36255       -3.75727       -0.34647
H         -0.06371       -0.68037        3.36285
H         -0.97600       -3.05194       -0.26786
H          0.26747       -2.57131       -2.45704
