62
ZTX_293_solv.log	Energy: -1483140.8942685
C         -1.59361        0.79461       -0.87016
N         -1.79388        1.18798        0.50257
C         -1.13766        0.60718        1.50539
C         -0.51375        1.48130       -1.73322
H         -2.50737        1.08796       -1.39718
N         -1.23311        1.07315        2.73652
H         -1.71577        1.94807        2.91759
H         -2.60044        1.77302        0.71042
N         -0.32278       -0.43015        1.22884
C          1.03652       -1.45638       -0.45874
C          1.90017       -0.63543        0.58117
C          0.99716       -0.59676        1.81752
O          1.31440       -2.80444       -0.42861
O          1.22582       -0.91049       -1.72206
H          1.24325        0.23169        2.49248
H          1.07231       -1.54555        2.36708
O         -0.73596        1.51286       -2.93876
C         -1.46006       -0.72027       -0.97655
C         -0.45783       -1.28363        0.04706
N         -1.08327       -2.53885        0.39439
C         -2.38058       -2.53760        0.08617
N         -2.69201       -1.44506       -0.64062
H         -1.15441       -0.98060       -1.99839
N         -3.22633       -3.48066        0.43489
C         -3.95117       -1.27764       -1.32301
H         -4.20733       -3.43657        0.17959
H          0.93385       -1.55460       -2.38277
C          2.32761        0.77272        0.13022
O         -4.99018       -0.95878       -0.41865
H         -3.83773       -0.50709       -2.09448
H         -4.25989       -2.21695       -1.79930
C         -5.17069        0.33658       -0.08274
O         -4.58701        1.27124       -0.59037
N         -6.13124        0.42844        0.86267
H         -6.38860       -0.39014        1.41052
O         -6.26665        1.62921        1.50071
H         -7.05901        2.04504        1.12849
H          3.06945        1.05790        0.88511
H          2.85639        0.70608       -0.82785
N          0.59167        2.02853       -1.19883
C          1.31950        1.93014        0.06710
C          2.00534        3.31714        0.03601
C          2.29874        3.50722       -1.45180
O          1.46235        2.56710       -2.13918
H          0.62092        1.93235        0.90436
C          3.21208        3.49934        0.93145
H          1.23811        4.04253        0.34482
H          2.06740        4.52445       -1.79821
H          3.33896        3.26072       -1.71025
O          2.82178        3.21242        2.25770
H          4.03744        2.84326        0.60266
H          3.56938        4.54012        0.83207
H          3.60648        3.25044        2.81612
O          3.04478       -1.36606        1.01068
S          4.39280       -1.69825        0.09833
O          5.02013       -0.42296       -0.25328
O          5.14358       -2.52009        1.04072
O          3.86955       -2.43587       -1.07595
H         -2.90533       -4.26314        0.99651
H         -0.84756        0.55397        3.51860
H         -0.64603       -3.22048        1.00698
H          2.25617       -2.89827       -0.70029
