62
ZTX_55_solv.log	Energy: -1483140.7716970
C          1.08621       -1.91420        0.08270
N          0.62630       -2.31800        1.38866
C         -0.05330       -1.50560        2.19636
C          0.18702       -2.09656       -1.16052
H          1.91880       -2.57735       -0.17329
N         -0.62290       -1.96900        3.29392
H         -0.64726       -2.96748        3.47841
H          0.83409       -3.26067        1.70629
N         -0.19323       -0.21071        1.84976
C         -0.33626        1.32376        0.01626
C         -1.75903        0.95044        0.58376
C         -1.43656        0.53496        2.02213
O         -0.14308        2.67704        0.26435
O         -0.15943        1.01176       -1.31578
H         -2.21971       -0.09304        2.46375
H         -1.28601        1.42378        2.65066
O          0.77591       -2.28075       -2.22026
C          1.61225       -0.48356        0.11691
C          0.67594        0.46712        0.88785
N          1.62973        1.31198        1.56601
C          2.85911        0.79942        1.56041
N          2.88386       -0.34475        0.84033
H          1.73499       -0.11961       -0.91134
N          3.89067        1.32946        2.17728
C          4.07548       -1.04516        0.46668
H          4.83857        1.07527        1.87721
H         -0.87777        1.48955       -1.78245
C         -2.53614       -0.15130       -0.17121
O          4.67762       -0.51522       -0.70475
H          4.78450       -1.04163        1.30310
H          3.82255       -2.08198        0.22707
C          5.70846        0.32810       -0.54853
O          6.12786        0.71520        0.53164
N          6.21826        0.74720       -1.72363
H          7.11643        1.22648       -1.70686
O          5.91649        0.09409       -2.88619
H          5.27224        0.65221       -3.34782
H         -3.53355       -0.07727        0.27743
H         -2.64165        0.12930       -1.22694
N         -1.15237       -2.03889       -1.09093
C         -2.15396       -1.63425       -0.10421
C         -3.30537       -2.56524       -0.55760
C         -3.12383       -2.60460       -2.07396
O         -1.78814       -2.14517       -2.32144
H         -1.85587       -1.95504        0.89349
C         -4.70282       -2.18322       -0.11791
H         -3.07501       -3.55800       -0.14335
H         -3.24300       -3.61711       -2.48458
H         -3.80312       -1.91541       -2.59659
O         -4.71484       -2.10054        1.29150
H         -5.00280       -1.22636       -0.58088
H         -5.40743       -2.95186       -0.48323
H         -5.57937       -1.77332        1.56512
O         -2.58198        2.09971        0.68029
S         -3.27462        2.80388       -0.66171
O         -4.59147        2.17104       -0.78509
O         -3.30526        4.21009       -0.26969
O         -2.37301        2.50109       -1.79566
H          3.75952        2.20304        2.67855
H         -1.02187       -1.33486        3.97833
H          1.36620        2.16219        2.05535
H          0.66936        2.94883       -0.18581
