62
ZTX_118_solv.log	Energy: -1483139.2660634
C          1.00743       -1.95220        0.19462
N          0.55772       -2.26439        1.52797
C         -0.06066       -1.37046        2.29700
C          0.06820       -2.14531       -1.01741
H          1.79922       -2.66819       -0.04811
N         -0.62318       -1.73518        3.43430
H         -0.68650       -2.71753        3.68465
H          0.73760       -3.19228        1.90084
N         -0.15222       -0.09554        1.87100
C         -0.30138        1.28355       -0.09015
C         -1.71591        1.03918        0.57184
C         -1.35257        0.71362        2.02415
O          0.07544        2.60769       -0.05049
O         -0.31695        0.78412       -1.38494
H         -2.14566        0.16356        2.54405
H         -1.13735        1.64163        2.57172
O          0.62439       -2.39771       -2.08083
C          1.60200       -0.55001        0.14434
C          0.71223        0.49151        0.84619
N          1.70259        1.35634        1.43930
C          2.91394        0.80483        1.44988
N          2.87658       -0.41248        0.85954
H          1.75022       -0.27286       -0.90792
N          3.98398        1.35812        1.97569
C          4.01557       -1.23788        0.59019
H          4.90635        1.04869        1.65206
H          0.43819        1.15223       -1.86694
C         -2.58033       -0.05404       -0.08414
O          4.59588       -0.97818       -0.67722
H          4.75420       -1.11901        1.39176
H          3.70218       -2.28579        0.55938
C          5.61246       -0.09499       -0.73542
O          6.06002        0.50785        0.22205
N          6.02643        0.04052       -2.01164
H          5.78016       -0.66449       -2.70422
O          7.20368        0.69809       -2.22804
H          6.96469        1.56606       -2.58767
H         -3.56038        0.08632        0.38828
H         -2.70749        0.18085       -1.14772
N         -1.26696       -2.03554       -0.92340
C         -2.24178       -1.54785        0.05322
C         -3.42907       -2.45474       -0.33999
C         -3.28207       -2.53312       -1.85916
O         -1.92252       -2.17742       -2.14155
H         -1.93971       -1.82757        1.06389
C         -4.81296       -2.04083        0.14519
H         -3.21951       -3.44492        0.09081
H         -3.48173       -3.53921       -2.25391
H         -3.92497       -1.80373       -2.37514
O         -5.75863       -3.07307       -0.03693
H         -4.76887       -1.83376        1.22551
H         -5.14199       -1.11553       -0.35880
H         -5.94983       -3.14593       -0.97960
O         -2.47177        2.24188        0.66936
S         -3.15558        3.07748       -0.59386
O         -4.15480        2.20752       -1.21683
O         -3.69416        4.22783        0.12275
O         -2.01497        3.39111       -1.48668
H          3.90090        2.28188        2.38953
H         -0.97124       -1.04076        4.08691
H          1.50153        2.30379        1.74322
H         -0.58078        3.09862       -0.59754
