62
ZTX_484_solv.log	Energy: -1483142.1945622
C          1.56180        0.85153        1.05752
N          1.81750        1.27827       -0.29660
C          1.25883        0.67157       -1.34360
C          0.40371        1.46719        1.86881
H          2.41951        1.18627        1.65037
N          1.41606        1.15816       -2.56108
H          1.88531        2.04821       -2.69882
H          2.64673        1.86336       -0.46044
N          0.47535       -0.40635       -1.13375
C         -0.89551       -1.59718        0.41143
C         -1.75464       -0.75377       -0.61789
C         -0.79754       -0.63698       -1.80825
O         -1.11393       -2.95286        0.18728
O         -1.11231       -1.26288        1.73337
H         -1.04876        0.19438       -2.47825
H         -0.78447       -1.57279       -2.38483
O          0.55625        1.49876        3.08502
C          1.49650       -0.67138        1.13570
C          0.60007       -1.27531        0.04065
N          1.33934       -2.47285       -0.29132
C          2.62426       -2.36641        0.05118
N          2.79451       -1.30449        0.86215
H          1.13771       -0.97439        2.12787
N          3.56031       -3.20981       -0.32199
C          4.02016       -0.85440        1.45166
H          4.54044       -2.98484       -0.17409
H         -2.07156       -1.38465        1.88209
C         -2.26352        0.62187       -0.14783
O          4.51371        0.29163        0.77576
H          3.83119       -0.52651        2.47973
H          4.76360       -1.65986        1.46528
C          5.09560        0.09162       -0.41712
O          5.48621       -0.98458       -0.82095
N          5.25552        1.25188       -1.10408
H          5.50780        1.17532       -2.08724
O          4.45637        2.32940       -0.81772
H          4.96932        2.92008       -0.24432
H         -3.01924        0.87134       -0.90247
H         -2.80118        0.51446        0.80248
N         -0.69735        1.95311        1.27495
C         -1.32863        1.83344       -0.03608
C         -2.08766        3.17947       -0.03875
C         -2.54857        3.27920        1.41087
O         -1.64728        2.45228        2.16276
H         -0.58176        1.88411       -0.82761
C         -3.19065        3.36117       -1.06914
H         -1.32716        3.95272       -0.22436
H         -2.50270        4.30550        1.80033
H         -3.56360        2.87811        1.55381
O         -2.70501        3.27699       -2.39226
H         -4.01531        2.64858       -0.89378
H         -3.61375        4.36906       -0.94400
H         -2.56580        2.34852       -2.61520
O         -2.85426       -1.54454       -1.05527
S         -4.25439       -1.72724       -0.13029
O         -5.11775       -0.61013       -0.51045
O         -4.69319       -3.04254       -0.58433
O         -3.79180       -1.68227        1.27168
H          3.32999       -3.93569       -0.99383
H          1.11508        0.62887       -3.37285
H          0.97642       -3.17402       -0.92938
H         -1.86761       -3.03952       -0.41778
