62
ZTX_281_solv.log	Energy: -1483140.9900264
C          1.47617        1.12809        0.53800
N          1.55900        1.40018       -0.87650
C          0.91823        0.66991       -1.78785
C          0.37551        1.77332        1.40701
H          2.37653        1.55829        0.98899
N          0.86452        1.05942       -3.04807
H          1.21252        1.97493       -3.31710
H          2.15853        2.15868       -1.18914
N          0.27739       -0.44683       -1.39135
C         -0.83572       -1.58509        0.39277
C         -1.85519       -0.93482       -0.62019
C         -1.02585       -0.85499       -1.90403
O         -0.99101       -2.96154        0.29618
O         -0.96672       -1.13848        1.69194
H         -1.41950       -0.12141       -2.61770
H         -0.97654       -1.84032       -2.38836
O          0.68853        2.00657        2.57047
C          1.49663       -0.37643        0.80343
C          0.59132       -1.16781       -0.15871
N          1.41605       -2.32362       -0.44191
C          2.69594       -2.11355       -0.11825
N          2.81534       -0.97137        0.58843
H          1.18275       -0.56184        1.83877
N          3.69098       -2.91551       -0.41569
C          3.93715       -0.60366        1.40580
H          4.64889       -2.56347       -0.31062
H         -1.89609       -1.33786        1.93343
C         -2.43757        0.44342       -0.22859
O          4.73963        0.39676        0.80378
H          3.55854       -0.15406        2.33036
H          4.53879       -1.48691        1.65239
C          5.69434       -0.00736       -0.04443
O          5.93335       -1.17488       -0.31084
N          6.35077        1.02307       -0.61516
H          7.22049        0.81991       -1.10366
O          6.24111        2.28557       -0.10076
H          5.64828        2.76754       -0.69718
H         -3.24848        0.56596       -0.95651
H         -2.91153        0.37341        0.75901
N         -0.86019        2.01450        0.94328
C         -1.61946        1.74194       -0.27682
C         -2.51531        3.00157       -0.27302
C         -2.77644        3.21590        1.21629
O         -1.74001        2.49964        1.90242
H         -0.96936        1.80707       -1.15036
C         -3.77793        2.97259       -1.12147
H         -1.88532        3.82497       -0.64473
H         -2.73570        4.27442        1.50742
H         -3.73762        2.78521        1.53466
O         -4.45285        4.21061       -1.06532
H         -3.52074        2.69493       -2.15995
H         -4.48485        2.22108       -0.74040
H         -3.87040        4.88328       -1.43914
O         -2.92758       -1.81776       -0.89788
S         -4.15741       -2.08880        0.19362
O         -3.56616       -1.88555        1.53480
O         -5.18746       -1.10032       -0.14175
O         -4.51432       -3.47129       -0.11070
H          3.51545       -3.73777       -0.98471
H          0.50398        0.44214       -3.76824
H          1.11906       -3.04946       -1.08838
H         -0.40930       -3.36939        0.95352
