62
ZTX_141_solv.log	Energy: -1483138.4060805
C         -1.28479        1.85857        0.27548
N         -0.71164        2.32958        1.51243
C          0.08253        1.57062        2.26424
C         -0.51298        2.03578       -1.05233
H         -2.16987        2.47508        0.08418
N          0.73899        2.08501        3.28802
H          0.72988        3.08711        3.45324
H         -0.93918        3.26764        1.83008
N          0.24935        0.27634        1.92902
C          0.26968       -1.28850        0.10879
C          1.72745       -0.85778        0.53686
C          1.53268       -0.40769        1.98774
O          0.02769       -2.62478        0.33670
O          0.07256       -0.93854       -1.22040
H          2.33056        0.26243        2.32963
H          1.48740       -1.28346        2.64991
O         -1.20214        2.15944       -2.05849
C         -1.74283        0.40917        0.41410
C         -0.68217       -0.47682        1.09053
N         -1.50887       -1.34138        1.89868
C         -2.73910       -0.85869        2.05001
N         -2.91232        0.24841        1.29048
H         -1.97779        0.01812       -0.58366
N         -3.65128       -1.39948        2.82494
C         -4.21505        0.75273        0.95056
H         -4.59610       -1.03443        2.87633
H         -0.69484       -1.42296       -1.55678
C          2.38202        0.23322       -0.32993
O         -4.95094       -0.14813        0.14261
H         -4.80591        0.89285        1.86229
H         -4.10406        1.72104        0.45072
C         -4.79957       -0.05075       -1.19711
O         -4.05191        0.72615       -1.74977
N         -5.64126       -0.91570       -1.80890
H         -6.03444       -1.69316       -1.28198
O         -5.42056       -1.16490       -3.13553
H         -6.11207       -0.68555       -3.61580
H          3.43030        0.20331       -0.01225
H          2.36076       -0.07354       -1.38205
N          0.83006        2.06078       -1.10619
C          1.94449        1.70195       -0.22881
C          2.99754        2.67809       -0.80227
C          2.68330        2.65164       -2.29484
O          1.33256        2.17943       -2.39875
H          1.74043        2.01799        0.79400
C          4.44905        2.39966       -0.45183
H          2.73599        3.67081       -0.40343
H          2.75642        3.64415       -2.76089
H          3.32074        1.94200       -2.84332
O          4.64043        2.27836        0.94151
H          4.78628        1.45619       -0.90588
H          5.07655        3.20185       -0.87871
H          4.38370        3.11321        1.35253
O          2.60355       -1.97620        0.63542
S          3.18804       -2.87743       -0.63237
O          3.97369       -1.98815       -1.48978
O          3.95899       -3.87701        0.09847
O          1.97368       -3.40789       -1.29624
H         -3.41788       -2.21468        3.38338
H          1.22937        1.48490        3.94338
H         -1.14283       -2.14452        2.40073
H          0.65246       -3.12177       -0.24022
