62
ZTX_218_solv.log	Energy: -1483142.1776634
C          1.38146        1.21547        0.60813
N          1.47607        1.50897       -0.80115
C          0.88358        0.76552       -1.73403
C          0.24352        1.80930        1.46484
H          2.25764        1.67290        1.07967
N          0.83138        1.17577       -2.98793
H          1.13332        2.11388       -3.23374
H          2.04141        2.30114       -1.09340
N          0.28902       -0.38762       -1.36901
C         -0.80809       -1.58683        0.37659
C         -1.83833       -0.94390       -0.63562
C         -0.99283       -0.83246       -1.90709
O         -0.85610       -2.97286        0.25782
O         -0.97936       -1.18596        1.68630
H         -1.39783       -0.10891       -2.62428
H         -0.90333       -1.81242       -2.39648
O          0.52515        2.03964        2.63684
C          1.45617       -0.28887        0.85594
C          0.60779       -1.10983       -0.13334
N          1.48834       -2.22192       -0.40530
C          2.74430       -1.97637       -0.03255
N          2.80487       -0.82397        0.66742
H          1.12505       -0.49988        1.88106
N          3.77285       -2.75394       -0.28005
C          3.88572       -0.42289        1.52389
H          4.71535       -2.37338       -0.14380
H         -1.90234       -1.41725        1.91467
C         -2.48192        0.39984       -0.23815
O          4.69055        0.59115        0.94890
H          3.46041        0.02133        2.43078
H          4.49878       -1.29009        1.79933
C          5.70930        0.20094        0.16113
O          5.96701       -0.95657       -0.11259
N          6.42312        1.27445       -0.23585
H          6.02562        2.20863       -0.15833
O          7.31836        1.09530       -1.25184
H          8.19490        1.08004       -0.83857
H         -3.29200        0.50227       -0.96994
H         -2.95880        0.29893        0.74508
N         -0.98968        2.01544        0.97830
C         -1.71182        1.72853       -0.25969
C         -2.65587        2.95236       -0.26257
C         -2.97360        3.11211        1.22223
O         -1.90103        2.47068        1.92420
H         -1.04608        1.82981       -1.11769
C         -3.87918        2.89425       -1.16966
H         -2.05000        3.80961       -0.59154
H         -3.02766        4.16362        1.53612
H         -3.90696        2.59854        1.50076
O         -4.51400        4.15154       -1.26354
H         -3.56154        2.61677       -2.18647
H         -4.58910        2.12479       -0.81992
H         -4.96068        4.32719       -0.42659
O         -2.86385       -1.89122       -0.91580
S         -4.16403       -2.15211        0.12804
O         -5.17284       -1.16505       -0.25454
O         -4.48562       -3.53608       -0.20268
O         -3.60831       -1.95459        1.48230
H          3.64277       -3.57913       -0.85693
H          0.50884        0.55768       -3.72506
H          1.20621       -3.01007       -0.97956
H         -1.64217       -3.20347       -0.26213
