62
ZTX_360_solv.log	Energy: -1483139.7150464
C         -1.54832        0.94500       -0.69950
N         -1.68046        1.27674        0.69794
C         -1.00866        0.63684        1.65366
C         -0.46924        1.61791       -1.56936
H         -2.46757        1.30072       -1.17883
N         -1.01432        1.08371        2.89599
H         -1.43842        1.98007        3.11494
H         -2.38118        1.96421        0.96359
N         -0.27682       -0.44295        1.31625
C          0.95693       -1.53145       -0.42219
C          1.90114       -0.77827        0.59154
C          1.04583       -0.73210        1.86073
O          1.23074       -2.88759       -0.30428
O          1.06475       -1.09289       -1.72625
H          1.36992        0.04981        2.55808
H          1.06503       -1.70483        2.37197
O         -0.74131        1.73820       -2.75964
C         -1.47934       -0.56562       -0.88657
C         -0.50709       -1.23103        0.10458
N         -1.21586       -2.45180        0.42397
C         -2.51304       -2.35784        0.11984
N         -2.74908       -1.24473       -0.59884
H         -1.16680       -0.79069       -1.91427
N         -3.42002       -3.24288        0.46348
C         -3.97975       -0.99771       -1.30487
H         -4.39955       -3.11372        0.23167
H          2.01147       -1.21025       -1.95263
C          2.37325        0.63242        0.17536
O         -4.99631       -0.54780       -0.43002
H         -3.78989       -0.27254       -2.10426
H         -4.36119       -1.92612       -1.74851
C         -5.17432        0.77519       -0.27998
O         -4.58551        1.63167       -0.91275
N         -6.06725        1.06234        0.69438
H         -6.44813        2.00633        0.71301
O         -6.89819        0.08911        1.18095
H         -6.54852       -0.14721        2.05319
H          3.15414        0.84125        0.91567
H          2.86884        0.58271       -0.80254
N          0.69993        2.03830       -1.06081
C          1.44648        1.85364        0.18239
C          2.22656        3.19109        0.17819
C          2.49386        3.41503       -1.30910
O          1.57346        2.56350       -2.00526
H          0.77342        1.87995        1.03899
C          3.46677        3.25424        1.04377
H          1.52050        3.95582        0.53443
H          2.32709        4.45795       -1.61328
H          3.50661        3.10493       -1.60551
O          3.09384        2.94181        2.36922
H          4.23418        2.55575        0.66580
H          3.89360        4.27086        0.97332
H          3.89529        2.89303        2.90245
O          3.03673       -1.56477        0.90595
S          4.30462       -1.74713       -0.16005
O          5.24013       -0.66810        0.17401
O          4.77330       -3.08876        0.17448
O          3.72199       -1.61685       -1.51401
H         -3.15356       -4.05354        1.01364
H         -0.62653        0.52745        3.65092
H         -0.84151       -3.14110        1.06998
H          0.70081       -3.35209       -0.96764
