62
ZTX_456_solv.log	Energy: -1483137.3359572
C         -1.74366        1.00291        0.88746
N         -1.35480        0.91335        2.27293
C         -0.46075        0.03048        2.71714
C         -0.97166        1.91063       -0.09130
H         -2.73487        1.47076        0.87224
N          0.01974        0.12250        3.94345
H         -0.20629        0.92427        4.52444
H         -1.78110        1.55161        2.93914
N         -0.00983       -0.92639        1.88130
C          0.46768       -1.43806       -0.40993
C          1.75987       -0.98518        0.37107
C          1.39388       -1.32677        1.81833
O          0.64733       -2.77139       -0.75510
O          0.16520       -0.65544       -1.50523
H          1.99784       -0.77629        2.54923
H          1.50797       -2.40544        1.99350
O         -1.62885        2.36212       -1.03446
C         -1.86209       -0.38586        0.27211
C         -0.70367       -1.31607        0.65380
N         -1.39974       -2.57047        0.82554
C         -2.72188       -2.40795        0.92273
N         -3.05147       -1.11668        0.71734
H         -1.89619       -0.29233       -0.81925
N         -3.55372       -3.38740        1.19451
C         -4.35222       -0.61991        0.33698
H         -4.55035       -3.23148        1.30099
H          0.96703       -0.69485       -2.06901
C          2.18163        0.49311        0.20153
O         -4.26645       -0.21999       -1.01580
H         -5.10829       -1.40567        0.44703
H         -4.63689        0.23637        0.96232
C         -4.75780        0.99085       -1.34290
O         -5.62388        1.56465       -0.71368
N         -4.22177        1.46285       -2.49339
H         -4.44537        2.42773       -2.73029
O         -3.00639        1.00948       -2.93737
H         -2.34711        1.42996       -2.33861
H          3.19555        0.51333        0.61708
H          2.29158        0.71499       -0.86770
N          0.32743        2.18024        0.04744
C          1.43582        1.66375        0.85564
C          2.27433        2.96251        0.93101
C          2.06372        3.56784       -0.45467
O          0.86023        2.96794       -0.96152
H          1.09619        1.45030        1.86963
C          3.72040        2.86202        1.38798
H          1.76189        3.59611        1.66936
H          1.93416        4.65853       -0.42248
H          2.87344        3.30980       -1.14924
O          4.54838        2.37158        0.35662
H          4.04813        3.86862        1.70264
H          3.76043        2.21317        2.28167
H          5.42669        2.22190        0.72375
O          2.86477       -1.80970        0.04377
S          3.65620       -1.70278       -1.41940
O          4.77052       -0.78150       -1.17921
O          4.04776       -3.09180       -1.64153
O          2.66472       -1.18193       -2.38706
H         -3.19294       -4.32522        1.34009
H          0.58525       -0.62297        4.33641
H         -0.91924       -3.43494        1.05825
H         -0.10565       -3.03746       -1.30192
