62
ZTX_51_solv.log	Energy: -1483139.5265237
C          1.01173       -1.99407        0.08237
N          0.60146       -2.36940        1.41350
C         -0.02443       -1.52873        2.23583
C          0.05043       -2.17161       -1.11398
H          1.81290       -2.68326       -0.20380
N         -0.55758       -1.96078        3.36403
H         -0.59476       -2.95495        3.56850
H          0.80329       -3.31121        1.73732
N         -0.15115       -0.23771        1.87244
C         -0.32951        1.27976        0.02935
C         -1.73823        0.95024        0.66083
C         -1.36246        0.54771        2.09010
O         -0.09038        2.63021        0.25303
O         -0.21435        0.94923       -1.30452
H         -2.14176       -0.04790        2.58032
H         -1.15557        1.44134        2.69536
O          0.58283       -2.38747       -2.19766
C          1.57568       -0.57773        0.07488
C          0.69560        0.40664        0.86891
N          1.69593        1.23455        1.49899
C          2.91112        0.69225        1.44874
N          2.87731       -0.46292        0.74721
H          1.66652       -0.23112       -0.96270
N          3.98126        1.20511        2.01182
C          4.03372       -1.20850        0.35025
H          4.90779        0.92188        1.67353
H         -0.93637        1.44461       -1.74723
C         -2.57122       -0.14027       -0.05133
O          4.61189       -0.72826       -0.85320
H          4.77079       -1.20537        1.16248
H          3.74110       -2.24341        0.15025
C          5.68111        0.08547       -0.75593
O          6.12911        0.51667        0.29091
N          6.20075        0.31133       -1.97895
H          5.65934        0.09327       -2.81330
O          7.10078        1.33074       -2.10496
H          7.97379        0.91373       -2.16298
H         -3.56725       -0.02638        0.39113
H         -2.68264        0.11919       -1.11199
N         -1.28239       -2.08680       -0.97934
C         -2.22833       -1.63254        0.04098
C         -3.41078       -2.56354       -0.32404
C         -3.31416       -2.63730       -1.84738
O         -1.98121       -2.21762       -2.17336
H         -1.89117       -1.93407        1.03286
C         -4.78711       -2.23132        0.22842
H         -3.14337       -3.54662        0.08959
H         -3.47844       -3.65545       -2.22814
H         -4.00230       -1.94110       -2.34371
O         -5.37932       -1.16725       -0.48405
H         -5.41157       -3.13965        0.15810
H         -4.68517       -1.99059        1.30207
H         -6.18128       -0.90299       -0.01955
O         -2.52550        2.12246        0.77681
S         -3.23861        2.84407       -0.54478
O         -4.58095        2.26005       -0.61796
O         -3.20416        4.25295       -0.16149
O         -2.38955        2.50307       -1.70812
H          3.89570        2.08959        2.50368
H         -0.91364       -1.30639        4.05297
H          1.47512        2.10532        1.97278
H          0.70520        2.87566       -0.24044
