62
ZTX_491_solv.log	Energy: -1483135.4924975
C         -1.57029        1.01850        1.13027
N         -0.88731        0.73121        2.36717
C          0.08330       -0.17605        2.45646
C         -1.02387        2.09878        0.16817
H         -2.53754        1.45749        1.39737
N          0.81093       -0.27556        3.55410
H          0.71832        0.41208        4.29563
H         -1.17294        1.22686        3.20704
N          0.34862       -0.95996        1.39139
C          0.32270       -1.02193       -0.99601
C          1.74996       -0.66154       -0.43765
C          1.70780       -1.28393        0.96767
O          0.35166       -2.25018       -1.62766
O         -0.10786       -0.01190       -1.84327
H          2.44843       -0.85040        1.64752
H          1.85720       -2.37048        0.92263
O         -1.85559        2.64866       -0.54507
C         -1.83215       -0.27107        0.36399
C         -0.59000       -1.17434        0.28754
N         -1.19443       -2.48212        0.37056
C         -2.43649       -2.43063        0.84427
N         -2.82345       -1.14359        1.01167
H         -2.16849       -0.02238       -0.65256
N         -3.16651       -3.48998        1.10611
C         -4.19264       -0.74674        1.18464
H         -4.13075       -3.41308        1.41050
H         -0.82148       -0.36059       -2.39668
C          2.12609        0.83117       -0.44695
O         -4.90733       -0.77960       -0.03590
H         -4.69384       -1.43661        1.87169
H         -4.22724        0.25790        1.61956
C         -5.08946        0.39346       -0.68768
O         -4.77244        1.47975       -0.25763
N         -5.63925        0.14911       -1.90003
H         -6.10237       -0.74079       -2.07315
O         -6.16432        1.21811       -2.57293
H         -5.52619        1.43361       -3.26958
H          3.20857        0.82391       -0.28164
H          1.97028        1.21071       -1.46564
N          0.27686        2.43341        0.13407
C          1.53987        1.82748        0.56113
C          2.36871        3.12448        0.71293
C          1.84409        3.98429       -0.43648
O          0.58076        3.41261       -0.80644
H          1.43534        1.40549        1.56137
C          3.88084        3.00063        0.80601
H          2.03854        3.57260        1.66121
H          1.69626        5.03283       -0.14084
H          2.49174        3.93804       -1.32156
O          4.45484        2.75937       -0.46075
H          4.27602        3.93774        1.23700
H          4.12236        2.18977        1.51629
H          5.36908        2.48541       -0.32711
O          2.64846       -1.28836       -1.34419
S          4.10457       -1.97424       -0.86371
O          3.73793       -3.31429       -0.39103
O          4.84109       -1.94747       -2.12325
O          4.61928       -1.08659        0.18820
H         -2.76705       -4.41640        0.99141
H          1.45927       -1.04623        3.67831
H         -0.68081       -3.33788        0.18385
H          1.24339       -2.33564       -2.00913
