62
ZTX_420_solv.log	Energy: -1483140.1905731
C         -1.57334        1.40165        0.61018
N         -1.07881        1.67782        1.93651
C         -0.21791        0.87831        2.56341
C         -0.82745        1.92855       -0.63365
H         -2.53150        1.92502        0.51584
N          0.33739        1.25002        3.70191
H          0.20933        2.19462        4.05258
H         -1.43766        2.49122        2.42862
N          0.12086       -0.29817        1.99533
C          0.38645       -1.40269       -0.11273
C          1.77074       -0.87540        0.45803
C          1.49174       -0.79590        1.96119
O          0.35898       -2.78910       -0.15270
O          0.04754       -0.83591       -1.33122
H          2.17592       -0.11491        2.48094
H          1.56282       -1.79608        2.41025
O         -1.51859        2.12141       -1.62824
C         -1.82987       -0.08925        0.43794
C         -0.67836       -0.95712        0.96247
N         -1.40749       -2.07878        1.50444
C         -2.70147       -1.80940        1.67028
N         -2.98729       -0.57298        1.20019
H         -1.98164       -0.31114       -0.62707
N         -3.55281       -2.64094        2.22511
C         -4.30063       -0.10546        0.84701
H         -4.53510       -2.41328        2.33314
H          0.74748       -1.08853       -1.96013
C          2.28197        0.45993       -0.11913
O         -4.53693       -0.36869       -0.52241
H         -5.06297       -0.62001        1.44054
H         -4.38005        0.97016        1.04227
C         -4.65325        0.68409       -1.35625
O         -4.84285        1.82984       -1.00219
N         -4.60372        0.30217       -2.65576
H         -4.47151        1.04584       -3.33856
O         -4.00523       -0.88596       -2.98886
H         -4.72344       -1.49167       -3.22462
H          3.30509        0.51429        0.27104
H          2.36703        0.38259       -1.21158
N          0.49472        2.16245       -0.62739
C          1.63333        1.80932        0.22089
C          2.54726        3.01138       -0.12362
C          2.23022        3.25979       -1.59841
O          0.99918        2.57121       -1.85563
H          1.36452        1.89976        1.27360
C          4.02430        2.85135        0.16600
H          2.17188        3.85786        0.47022
H          2.10685        4.32806       -1.82608
H          2.98553        2.82724       -2.27060
O          4.17560        2.55170        1.53738
H          4.45661        2.05900       -0.47050
H          4.53718        3.79305       -0.10051
H          5.10672        2.36426        1.70183
O          2.79928       -1.85189        0.32977
S          3.46945       -2.25714       -1.13420
O          4.41623       -1.19926       -1.48706
O          4.06616       -3.54909       -0.81920
O          2.29813       -2.33081       -2.04722
H         -3.21998       -3.52924        2.58818
H          0.88409        0.59453        4.25091
H         -0.95516       -2.92947        1.82556
H          0.98445       -3.05272       -0.85210
