62
ZTX_451_solv.log	Energy: -1483140.2924869
C         -1.60136        1.24910       -0.78319
N         -1.67541        1.23799        0.65736
C         -0.98007        0.36010        1.38011
C         -0.54198        2.10524       -1.50528
H         -2.52393        1.72213       -1.13480
N         -0.97618        0.42524        2.69884
H         -1.43076        1.20088        3.17159
H         -2.48072        1.70211        1.09618
N         -0.22501       -0.54915        0.73490
C          0.93261       -1.13017       -1.27058
C          1.91590       -0.71217       -0.09481
C          1.08815       -0.99678        1.17412
O          1.18789       -2.40615       -1.73478
O          0.95090       -0.26171       -2.34530
H          1.43138       -0.41990        2.04078
H          1.06520       -2.06060        1.44067
O         -0.85933        2.51777       -2.61598
C         -1.55541       -0.17617       -1.33401
C         -0.50170       -1.03102       -0.61573
N         -1.17021       -2.31607       -0.56276
C         -2.49643       -2.16301       -0.63642
N         -2.79085       -0.92405       -1.07474
H         -1.35741       -0.14807       -2.41338
N         -3.36951       -3.10596       -0.36017
C         -4.09187       -0.37859       -1.32460
H         -4.34684       -2.85667       -0.22031
H          1.83764       -0.26489       -2.73253
C          2.39320        0.75404       -0.12124
O         -4.48330        0.49084       -0.27351
H         -4.05601        0.24837       -2.22228
H         -4.82545       -1.17924       -1.47357
C         -4.89055       -0.08255        0.86905
O         -5.21699       -1.24778        0.97611
N         -4.95481        0.80789        1.89104
H         -5.06136        0.42672        2.82883
O         -4.21393        1.96056        1.83859
H         -4.81372        2.67078        1.56198
H          3.16769        0.76535        0.65644
H          2.90604        0.93610       -1.07673
N          0.66036        2.36842       -0.96908
C          1.45392        1.93141        0.17825
C          2.21828        3.24900        0.43909
C          2.43544        3.78987       -0.97449
O          1.50291        3.08717       -1.80811
H          0.80989        1.75281        1.04007
C          3.48470        3.17559        1.27824
H          1.51223        3.90998        0.96591
H          2.24736        4.87010       -1.04825
H          3.44247        3.56723       -1.35691
O          4.03278        4.46049        1.47971
H          3.26460        2.67146        2.23698
H          4.25985        2.58904        0.76397
H          3.38437        4.98648        1.96393
O          3.13328       -1.43262       -0.23702
S          3.50802       -2.80318        0.61280
O          2.40202       -3.73815        0.28534
O          4.79358       -3.15635        0.02635
O          3.53852       -2.41216        2.02415
H         -3.03728       -3.97840        0.04026
H         -0.56712       -0.31827        3.25496
H         -0.73484       -3.13203       -0.14020
H          1.56598       -2.97948       -1.03179
