62
ZTX_60_solv.log	Energy: -1483139.3751559
C          1.06339       -1.89158        0.27942
N          0.62310       -2.16714        1.62536
C         -0.00131       -1.26276        2.37822
C          0.13002       -2.14573       -0.92542
H          1.86674       -2.60273        0.06111
N         -0.55137       -1.60872        3.52751
H         -0.60471       -2.58620        3.79845
H          0.81442       -3.08303        2.02155
N         -0.10925        0.00206        1.92679
C         -0.26660        1.37158       -0.03274
C         -1.68098        1.09282        0.60791
C         -1.32211        0.80207        2.06813
O         -0.02584        2.73445        0.08739
O         -0.14040        0.93803       -1.33584
H         -2.10616        0.24561        2.59495
H         -1.12053        1.74014        2.60395
O          0.68946       -2.43284       -1.97821
C          1.63337       -0.48070        0.17782
C          0.74809        0.56459        0.88291
N          1.74544        1.43742        1.45455
C          2.95875        0.88797        1.46267
N          2.92676       -0.32026        0.85622
H          1.74167       -0.21238       -0.88103
N          4.02520        1.43977        1.99612
C          4.08302       -1.09493        0.51979
H          4.95234        1.13128        1.68297
H         -0.85770        1.39594       -1.82324
C         -2.51412       -0.04835       -0.02082
O          4.64597       -0.72427       -0.72928
H          4.82719       -1.01585        1.32114
H          3.79422       -2.14479        0.41505
C          5.69054        0.11643       -0.71558
O          6.15479        0.62555        0.29295
N          6.15989        0.38093       -1.95133
H          7.06469        0.84207       -2.02418
O          5.81285       -0.41173       -3.01020
H          5.16356        0.09374       -3.52242
H         -3.49205        0.09184        0.45535
H         -2.65564        0.15240       -1.09060
N         -1.20474       -2.03613       -0.83638
C         -2.17039       -1.53536        0.14109
C         -3.35929       -2.45305       -0.22235
C         -3.21610       -2.59948       -1.73763
O         -1.86861       -2.21402       -2.04318
H         -1.85451       -1.79643        1.15210
C         -4.73631       -2.01051        0.23153
H         -3.15591       -3.42591        0.24929
H         -3.38481       -3.62939       -2.08137
H         -3.88103       -1.91626       -2.28635
O         -5.62936       -3.06704       -0.05086
H         -4.70994       -1.78073        1.31326
H         -5.04057       -1.09145       -0.29930
H         -6.52374       -2.75104        0.11947
O         -2.47032        2.26914        0.62232
S         -3.18523        2.87160       -0.75782
O         -4.51508        2.25553       -0.79822
O         -3.18250        4.30529       -0.48251
O         -2.31627        2.45886       -1.88241
H          3.93876        2.36149        2.41391
H         -0.90325       -0.90385        4.16679
H          1.52280        2.33767        1.86882
H          0.78551        2.93318       -0.40179
