62
ZTX_165_solv.log	Energy: -1483141.5953095
C          1.52552        1.00289        0.80466
N          1.71745        1.32682       -0.58759
C          1.12921        0.63863       -1.56576
C          0.36617        1.62596        1.61112
H          2.39136        1.40852        1.33851
N          1.19055        1.06105       -2.81468
H          1.58853        1.97094       -3.02727
H          2.41819        2.02296       -0.83106
N          0.42259       -0.46320       -1.24736
C         -0.84859       -1.55712        0.45536
C         -1.77621       -0.88304       -0.64690
C         -0.84705       -0.82606       -1.86176
O         -0.97980       -2.93730        0.44274
O         -1.03276       -1.02343        1.72146
H         -1.16297       -0.08243       -2.60308
H         -0.78995       -1.81324       -2.34150
O          0.57651        1.77238        2.81063
C          1.51656       -0.51192        1.00231
C          0.61759       -1.23235       -0.01683
N          1.39520       -2.42318       -0.28708
C          2.68309       -2.23615        0.01668
N          2.82385       -1.12005        0.75692
H          1.18864       -0.74355        2.02379
N          3.66356       -3.04101       -0.32670
C          3.99994       -0.70351        1.46330
H          4.61966       -2.68113       -0.28611
H         -1.95981       -1.19909        1.96384
C         -2.35522        0.50187       -0.29339
O          4.62925        0.38730        0.81522
H          3.70890       -0.32709        2.45020
H          4.69218       -1.54436        1.58865
C          5.37802        0.10062       -0.25956
O          5.70318       -1.02768       -0.58962
N          5.70716        1.20019       -0.96706
H          6.45442        1.12494       -1.65422
O          5.49127        2.44872       -0.45259
H          4.70854        2.79464       -0.90821
H         -3.08541        0.67151       -1.09426
H         -2.93104        0.43490        0.63947
N         -0.80589        1.96512        1.05070
C         -1.48396        1.76596       -0.23032
C         -2.32758        3.05971       -0.24181
C         -2.68906        3.22970        1.23369
O         -1.74892        2.42660        1.96091
H         -0.76887        1.83401       -1.05185
C         -3.51468        3.10538       -1.18355
H         -1.64561        3.87138       -0.53585
H         -2.61241        4.27242        1.57155
H         -3.69292        2.84273        1.46336
O         -4.02541        4.42111       -1.14689
H         -3.18612        2.82632       -2.20223
H         -4.28503        2.37972       -0.86904
H         -4.84370        4.43526       -1.65577
O         -2.84149       -1.74172       -1.03594
S         -4.13179       -2.06602       -0.04110
O         -5.02974       -0.91298       -0.10720
O         -4.64475       -3.29167       -0.64010
O         -3.50622       -2.25298        1.29431
H          3.46387       -3.82853       -0.93582
H          0.86293        0.47860       -3.57824
H          1.07638       -3.13760       -0.93512
H         -1.87376       -3.12615        0.78100
