62
ZTX_234_solv.log	Energy: -1483139.8793848
C         -1.47414        1.42603       -0.29673
N         -1.40201        1.20089        1.12551
C         -0.67699        0.22123        1.66217
C         -0.46174        2.35698       -0.99871
H         -2.41095        1.96375       -0.47972
N         -0.48137        0.16753        2.96696
H         -0.78115        0.93364        3.56226
H         -1.94177        1.80342        1.74067
N         -0.10431       -0.68708        0.84779
C          0.81189       -1.09065       -1.31576
C          1.93280       -0.78361       -0.25602
C          1.24619       -1.20147        1.05329
O          0.90412       -2.40442       -1.73463
O          0.91886       -0.20048       -2.37382
H          1.71021       -0.75412        1.93834
H          1.24084       -2.29340        1.16599
O         -0.88504        2.95143       -1.98564
C         -1.54852        0.09926       -1.04874
C         -0.55030       -0.94865       -0.52184
N         -1.34788       -2.15293       -0.57539
C         -2.65084       -1.88680       -0.66773
N         -2.84252       -0.56962       -0.89711
H         -1.36664        0.28791       -2.11543
N         -3.61192       -2.77716       -0.58157
C         -4.05289        0.01376       -1.40683
H         -4.57389       -2.44675       -0.45121
H          0.44679       -0.57340       -3.13235
C          2.48462        0.65317       -0.24177
O         -4.79012        0.70083       -0.41142
H         -3.78694        0.77488       -2.14857
H         -4.67524       -0.75322       -1.88437
C         -5.64191       -0.02125        0.33947
O         -5.84157       -1.21408        0.20589
N         -6.20789        0.76550        1.27941
H         -6.19178        1.77742        1.16496
O         -7.29621        0.26792        1.93940
H         -6.98417        0.02404        2.82374
H          3.41003        0.56744        0.33694
H          2.78333        0.91064       -1.26675
N          0.80512        2.49299       -0.57716
C          1.70116        1.82270        0.36678
C          2.58305        3.03820        0.73952
C          2.68192        3.78946       -0.58635
O          1.57850        3.32607       -1.37842
H          1.15807        1.54488        1.27163
C          3.90091        2.77621        1.44986
H          1.97596        3.63765        1.43341
H          2.60325        4.87842       -0.45837
H          3.60119        3.54776       -1.13574
O          4.88524        2.30724        0.55340
H          4.22774        3.71916        1.92327
H          3.72138        2.04998        2.26267
H          5.62574        1.97323        1.07199
O          3.02129       -1.61054       -0.65025
S          4.05781       -2.33785        0.45322
O          3.35241       -3.55528        0.86969
O          5.22939       -2.56464       -0.38744
O          4.23182       -1.34906        1.52633
H         -3.37810       -3.74079       -0.36325
H         -0.05140       -0.64576        3.39562
H         -0.97033       -3.06265       -0.32866
H          1.85159       -2.62672       -1.70598
