62
ZTX_273_solv.log	Energy: -1483138.4111570
C         -1.69652        0.61205       -0.75815
N         -1.87027        0.99685        0.62166
C         -1.15300        0.44303        1.59794
C         -0.68758        1.35821       -1.65870
H         -2.63076        0.86129       -1.27204
N         -1.24706        0.89121        2.83652
H         -1.78683        1.72770        3.03755
H         -2.75564        1.45405        0.87653
N         -0.28249       -0.53815        1.29030
C          1.05778       -1.56915       -0.39619
C          1.91599       -0.67363        0.58196
C          1.05734       -0.65764        1.85044
O          1.47950       -2.88047       -0.21966
O          1.11687       -1.17852       -1.71842
H          1.28937        0.18814        2.50916
H          1.17989       -1.59718        2.40796
O         -0.96089        1.39152       -2.85363
C         -1.47219       -0.89373       -0.88484
C         -0.42738       -1.40595        0.12290
N         -1.00375       -2.67736        0.50402
C         -2.31543       -2.71522        0.25395
N         -2.66302       -1.69000       -0.54691
H         -1.15404       -1.12874       -1.90799
N         -3.12210       -3.64275        0.71435
C         -3.99133       -1.31005       -0.89892
H         -4.09999       -3.67786        0.44828
H          2.07107       -1.20226       -1.94399
C          2.23806        0.76007        0.10401
O         -4.43057       -0.35983        0.06880
H         -3.99477       -0.86062       -1.90085
H         -4.66190       -2.17908       -0.90876
C         -5.41758        0.46729       -0.28624
O         -6.12078        0.32183       -1.26420
N         -5.58522        1.47441        0.61701
H         -6.14471        2.26559        0.30462
O         -4.53237        1.83623        1.42305
H         -4.71845        1.47461        2.30329
H          2.99661        1.07894        0.82790
H          2.73060        0.72418       -0.87614
N          0.41891        1.93830       -1.16588
C          1.18664        1.87629        0.07711
C          1.81782        3.28893        0.02282
C          2.04877        3.49338       -1.47376
O          1.22945        2.51899       -2.13372
H          0.51618        1.85691        0.93613
C          3.05137        3.51514        0.87078
H          1.03615        3.98429        0.36280
H          1.76088        4.49983       -1.80890
H          3.08865        3.29254       -1.77012
O          2.72705        3.21139        2.21090
H          3.88696        2.89099        0.50729
H          3.36500        4.56880        0.76023
H          3.53498        3.26527        2.73386
O          3.12754       -1.32170        0.92653
S          4.40156       -1.43022       -0.14176
O          5.23230       -0.25412        0.13724
O          4.99720       -2.70597        0.24421
O          3.80401       -1.41426       -1.49520
H         -2.75882       -4.36932        1.32334
H         -0.81313        0.38931        3.60446
H         -0.53519       -3.31981        1.13648
H          1.02700       -3.42627       -0.87818
