62
ZTX_248_solv.log	Energy: -1483136.0895414
C         -1.21069        1.81210        0.41893
N         -0.71524        2.09371        1.74466
C         -0.04013        1.20063        2.46653
C         -0.32972        2.07900       -0.82115
H         -2.03964        2.50421        0.23760
N          0.54823        1.55406        3.59447
H          0.58766        2.53106        3.86936
H         -0.91278        3.00212        2.15462
N          0.07666       -0.05992        2.00441
C          0.19659       -1.38704        0.01280
C          1.62484       -1.09999        0.61762
C          1.30649       -0.84176        2.09411
O         -0.01449       -2.75679        0.09504
O          0.01896       -0.91198       -1.27037
H          2.09677       -0.28264        2.60837
H          1.13464       -1.79229        2.61842
O         -0.93104        2.34746       -1.85529
C         -1.75575        0.39006        0.34564
C         -0.80314       -0.63265        0.98545
N         -1.74412       -1.54981        1.58627
C         -2.95279       -1.00398        1.72215
N         -2.99795        0.20181        1.11230
H         -1.92098        0.11855       -0.70526
N         -3.94762       -1.57840        2.35663
C         -4.23181        0.85351        0.77120
H         -4.87590       -1.17056        2.38075
H          0.72583       -1.33940       -1.79797
C          2.41728        0.06742       -0.01270
O         -4.91796        0.18170       -0.26964
H         -4.90247        0.85197        1.63722
H         -4.02727        1.89200        0.49101
C         -4.71897        0.61868       -1.52723
O         -4.01056        1.55936       -1.82568
N         -5.44923       -0.07950       -2.42894
H         -5.18691        0.01846       -3.40770
O         -5.96940       -1.30140       -2.09126
H         -6.92011       -1.16249       -1.96736
H          3.40740       -0.04541        0.44585
H          2.54642       -0.12289       -1.08579
N          1.00979        2.00406       -0.77919
C          2.02927        1.54086        0.16203
C          3.17287        2.49500       -0.25134
C          2.97417        2.60004       -1.76379
O          1.62143        2.19492       -2.01238
H          1.74597        1.79517        1.18402
C          4.58392        2.11418        0.18088
H          2.94615        3.46888        0.20692
H          3.12016        3.62199       -2.14071
H          3.62873        1.90941       -2.31693
O          5.49399        3.17513       -0.01575
H          4.58146        1.88997        1.25869
H          4.92134        1.20589       -0.34795
H          5.65753        3.26208       -0.96236
O          2.43289       -2.26255        0.58402
S          3.11363       -2.82286       -0.83176
O          4.43479       -2.19018       -0.89391
O          3.13454       -4.26291       -0.59243
O          2.20777       -2.39204       -1.91952
H         -3.80365       -2.47739        2.80632
H          0.93656        0.85461        4.21841
H         -1.45311       -2.40123        2.05885
H         -0.85737       -2.95033       -0.33994
