62
ZTX_522_solv.log	Energy: -1483135.3595973
C         -1.46644        1.22705        1.11456
N         -0.73644        0.98024        2.33398
C          0.21972        0.05801        2.41904
C         -0.92296        2.25086        0.09056
H         -2.40414        1.71403        1.40262
N          1.01310        0.00175        3.47297
H          0.98252        0.73307        4.17712
H         -0.96051        1.53311        3.15657
N          0.39904       -0.78700        1.38359
C          0.19013       -1.11552       -0.97846
C          1.66549       -0.73940       -0.56770
C          1.71177       -1.19652        0.89993
O          0.21516       -2.40438       -1.48510
O         -0.40773       -0.22911       -1.85646
H          2.51259       -0.71403        1.47155
H          1.83603       -2.28510        0.96119
O         -1.76136        2.84311       -0.57893
C         -1.81978       -0.09015        0.43128
C         -0.62631       -1.06438        0.38118
N         -1.27671       -2.32702        0.64677
C         -2.49489       -2.16386        1.16510
N         -2.83885       -0.85842        1.16454
H         -2.16703        0.11111       -0.58940
N         -3.24171       -3.15140        1.60085
C         -4.18924       -0.40309        1.34432
H         -4.18386       -2.99957        1.94412
H          0.08285       -0.24066       -2.69115
C          1.99768        0.75303       -0.77488
O         -5.00640       -0.68083        0.22255
H         -4.64569       -0.92336        2.19330
H         -4.18184        0.67038        1.56132
C         -5.10327        0.27361       -0.73136
O         -4.56261        1.35600       -0.68036
N         -5.85675       -0.19137       -1.75554
H         -6.47836       -0.98293       -1.60109
O         -6.30555        0.72854       -2.66324
H         -5.76431        0.60547       -3.45726
H          3.08436        0.75817       -0.87905
H          1.60294        1.07303       -1.74802
N          0.39140        2.50946       -0.02296
C          1.62926        1.79781        0.28607
C          2.59207        2.99778        0.32595
C          2.06570        3.85043       -0.82199
O          0.68924        3.47228       -0.98952
H          1.59658        1.39707        1.29729
C          4.07677        2.65524        0.27381
H          2.39237        3.51566        1.27620
H          2.11339        4.92805       -0.61372
H          2.58602        3.63699       -1.76845
O          4.41838        1.67739        1.23396
H          4.36840        2.33354       -0.74035
H          4.65149        3.57008        0.48773
H          4.42389        0.80736        0.79923
O          2.53322       -1.46483       -1.42244
S          4.06617       -1.91030       -0.95338
O          3.88637       -3.12502       -0.15151
O          4.70260       -2.11369       -2.25061
O          4.60572       -0.77603       -0.17561
H         -2.87913       -4.09990        1.58602
H          1.65046       -0.77754        3.60129
H         -0.77558       -3.21168        0.65221
H         -0.68420       -2.63409       -1.76081
