62
ZTX_246_solv.log	Energy: -1483141.3836003
C          0.96973       -1.97736        0.16801
N          0.51802       -2.31325        1.49602
C         -0.08620       -1.43395        2.29359
C          0.03109       -2.13166       -1.04860
H          1.74870       -2.70209       -0.09045
N         -0.65979       -1.82651        3.41610
H         -0.74345       -2.81531        3.63286
H          0.67316       -3.25738        1.83808
N         -0.15005       -0.14353        1.91186
C         -0.23430        1.35197        0.05220
C         -1.67083        1.07531        0.65416
C         -1.33357        0.68952        2.09786
O          0.10699        2.68399        0.27074
O         -0.10470        1.01353       -1.27874
H         -2.14120        0.13373        2.58850
H         -1.10187        1.58608        2.68984
O          0.58171       -2.38912       -2.11362
C          1.58531       -0.58370        0.14343
C          0.74070        0.45142        0.91207
N          1.76627        1.24422        1.54451
C          2.96713        0.67516        1.47608
N          2.88800       -0.50380        0.81822
H          1.69582       -0.25917       -0.89939
N          4.06417        1.18236        1.99170
C          4.01107       -1.30715        0.43858
H          4.97282        0.87011        1.63249
H         -0.79190        1.52696       -1.74907
C         -2.54460        0.01513       -0.04651
O          4.56114       -0.92705       -0.81230
H          4.77257       -1.27202        1.22720
H          3.68612       -2.34449        0.31587
C          5.61176       -0.08348       -0.80709
O          6.11726        0.38485        0.19654
N          5.98909        0.18849       -2.07208
H          5.68194       -0.40604       -2.83946
O          7.18345        0.82447       -2.25418
H          6.96924        1.74928       -2.45042
H         -3.52357        0.16588        0.42427
H         -2.66065        0.27594       -1.10628
N         -1.29810       -1.96582       -0.95838
C         -2.25312       -1.48920        0.04150
C         -3.46850       -2.34913       -0.37420
C         -3.32132       -2.42241       -1.89390
O         -1.96262       -2.05850       -2.17440
H         -1.95290       -1.81019        1.03961
C         -4.84490       -1.89501        0.08911
H         -3.29135       -3.35074        0.04796
H         -3.51606       -3.42857       -2.29027
H         -3.96460       -1.69473       -2.41028
O         -5.83992       -2.81226       -0.31082
H         -4.83879       -1.75165        1.18510
H         -5.11199       -0.93271       -0.37192
H         -5.65015       -3.65899        0.11182
O         -2.38862        2.30290        0.72024
S         -3.15448        2.97099       -0.62836
O         -4.48121        2.35818       -0.66640
O         -3.12709        4.38370       -0.26493
O         -2.28982        2.61124       -1.77052
H          4.01116        2.08369        2.45693
H         -0.99692       -1.14821        4.09128
H          1.59831        2.19586        1.85674
H         -0.68526        3.15382        0.57661
