62
ZTX_525_solv.log	Energy: -1483138.0201370
C          1.69340        1.04820        0.54904
N          1.83336        1.19107       -0.88021
C          1.05105        0.54300       -1.74404
C          0.72182        1.98056        1.30832
H          2.65639        1.33939        0.97877
N          1.04376        0.86936       -3.02237
H          1.55440        1.68617       -3.34435
H          2.58254        1.77903       -1.23605
N          0.22571       -0.40871       -1.27167
C         -1.03278       -1.40102        0.51308
C         -1.97202       -0.68454       -0.55228
C         -1.09693       -0.68746       -1.80940
O         -1.21505       -2.76273        0.48344
O         -1.21887       -0.97324        1.82298
H         -1.39912        0.08271       -2.52953
H         -1.13639       -1.67360       -2.29334
O          1.16741        2.68224        2.19067
C          1.43542       -0.41736        0.92449
C          0.44707       -1.13580       -0.02692
N          1.14651       -2.37719       -0.28396
C          2.42491       -2.32876        0.08396
N          2.65524       -1.21293        0.80104
H          1.07061       -0.47817        1.96028
N          3.32373       -3.25133       -0.18168
C          3.84386       -0.90175        1.53946
H          4.31230       -2.99695       -0.11208
H         -1.15828       -0.00647        1.87637
C         -2.44611        0.73299       -0.18999
O          4.63528        0.06351        0.86886
H          3.56109       -0.43412        2.48905
H          4.41709       -1.81422        1.74411
C          5.39019       -0.36558       -0.15354
O          5.61803       -1.53954       -0.39569
N          5.84689        0.64823       -0.91357
H          6.59478        0.46502       -1.57922
O          5.69562        1.94706       -0.51688
H          4.93696        2.29259       -1.01256
H         -3.15509        0.99857       -0.98411
H         -3.01664        0.70401        0.74794
N         -0.63757        1.78057        1.14465
C         -1.40395        1.84524       -0.11117
C         -1.99061        3.27122        0.00110
C         -2.20045        3.43643        1.50243
O         -1.40595        2.40919        2.11998
H         -0.72738        1.84161       -0.96648
C         -3.22815        3.54480       -0.82677
H         -1.19517        3.95638       -0.32902
H         -1.87121        4.41846        1.86914
H         -3.24301        3.26096        1.80525
O         -2.91606        3.29797       -2.18125
H         -4.06287        2.90861       -0.48270
H         -3.53469        4.59442       -0.66822
H         -3.72732        3.38264       -2.69496
O         -3.09186       -1.48582       -0.90883
S         -4.38119       -1.86650        0.06755
O         -5.01527       -0.61292        0.48015
O         -5.16446       -2.68616       -0.84968
O         -3.77730       -2.61589        1.19392
H          3.06272       -4.03385       -0.77363
H          0.58651        0.27802       -3.70902
H          0.75443       -3.10670       -0.87103
H         -2.13949       -2.92423        0.78107
