62
ZTX_350_solv.log	Energy: -1483138.3686244
C         -1.60223        0.79130       -0.70068
N         -1.74258        1.17235        0.68392
C         -1.02469        0.61397        1.65666
C         -0.57729        1.49540       -1.61225
H         -2.54627        1.07054       -1.18127
N         -1.03994        1.11062        2.87975
H         -1.51219        1.98914        3.07045
H         -2.48886        1.81827        0.92942
N         -0.23332       -0.43392        1.35341
C          1.02568       -1.56163       -0.33836
C          1.94846       -0.70214        0.61025
C          1.11069       -0.62075        1.88918
O          1.36415       -2.89227       -0.13168
O          1.09801       -1.20844       -1.67038
H          1.40222        0.21666        2.53484
H          1.18959       -1.55881        2.45658
O         -0.88139        1.57188       -2.79878
C         -1.44870       -0.72003       -0.82876
C         -0.44486       -1.29459        0.18954
N         -1.10104       -2.52367        0.57841
C         -2.39465       -2.51968        0.24804
N         -2.68253       -1.45445       -0.52267
H         -1.11987       -0.96587       -1.84645
N         -3.25352       -3.44341        0.61428
C         -3.90242       -1.33053       -1.28180
H         -4.23504       -3.38511        0.36359
H          2.04634       -1.30249       -1.90294
C          2.34267        0.70055        0.09590
O         -4.99010       -0.95662       -0.46060
H         -3.74254       -0.60823       -2.09080
H         -4.18260       -2.29897       -1.71476
C         -5.22861        0.35881       -0.26948
O         -4.64169        1.25889       -0.83195
N         -6.25348        0.50939        0.59842
H         -6.52695       -0.26164        1.20424
O         -6.46303        1.76019        1.10759
H         -7.22966        2.11798        0.63499
H          3.16015        0.97725        0.77264
H          2.78732        0.61545       -0.90378
N          0.58269        1.98114       -1.14444
C          1.35786        1.87709        0.08916
C          2.06098        3.25271        0.02243
C          2.35522        3.38081       -1.46721
O          1.40392        2.53107       -2.12476
H          0.70154        1.89376        0.95933
C          3.26342        3.47795        0.92418
H          1.29665        3.99470        0.29843
H          2.23287        4.40853       -1.83600
H          3.36123        3.01631       -1.72595
O          2.92640        3.41055        2.29327
H          4.08261        2.78232        0.67217
H          3.64422        4.49316        0.73665
H          2.82368        2.48456        2.54286
O          3.12508       -1.41431        0.95059
S          4.38141       -1.60752       -0.12768
O          5.27118       -0.46808        0.11907
O          4.91711       -2.90308        0.27906
O          3.76951       -1.58954       -1.47460
H         -2.94640       -4.21499        1.19837
H         -0.61704        0.60451        3.65120
H         -0.69824       -3.16213        1.25861
H          0.83849       -3.42826       -0.74235
