62
ZTX_185_solv.log	Energy: -1483140.6714901
C          1.58289        0.79574        0.77607
N          1.75313        1.18818       -0.60208
C          1.06429        0.62766       -1.59497
C          0.53456        1.48921        1.66941
H          2.51442        1.07713        1.27845
N          1.11371        1.12406       -2.81716
H          1.58957        2.00345       -2.99442
H          2.52589        1.81070       -0.82585
N          0.26529       -0.42047       -1.31357
C         -1.02787       -1.55602        0.34681
C         -1.93135       -0.69649       -0.61973
C         -1.06628       -0.60571       -1.88015
O         -1.36057       -2.88701        0.13294
O         -1.12771       -1.20305        1.67732
H         -1.34557        0.23691       -2.52412
H         -1.13117       -1.53962       -2.45612
O          0.80810        1.55467        2.86392
C          1.43859       -0.71716        0.88746
C          0.45224       -1.28669       -0.14986
N          1.11529       -2.51481       -0.53177
C          2.40724       -2.50164       -0.19427
N          2.68156       -1.43661        0.58141
H          1.10127       -0.97808        1.89869
N          3.27577       -3.41644       -0.55987
C          3.90747       -1.29209        1.32739
H          4.25405       -3.35498       -0.29808
H         -2.08061       -1.29695        1.88984
C         -2.34030        0.70396       -0.11316
O          4.98898       -0.94658        0.48561
H          3.75551       -0.54557        2.11570
H          4.19156       -2.24748        1.78624
C          5.20149        0.35970        0.21649
O          4.59593        1.27940        0.72506
N          6.22208        0.47881       -0.66073
H          6.50998       -0.31973       -1.22262
O          6.41219        1.70323       -1.23687
H          7.17327        2.09765       -0.78474
H         -3.13038        0.98630       -0.81807
H         -2.81482        0.61759        0.87256
N         -0.61061        1.98327        1.17453
C         -1.35587        1.87914       -0.07734
C         -2.06388        3.25131       -0.02867
C         -2.38191        3.39411        1.45552
O         -1.45512        2.53296        2.13453
H         -0.67687        1.89755       -0.92910
C         -3.24633        3.43918       -0.96305
H         -1.29688        3.99452       -0.29814
H         -2.25068        4.42158        1.82181
H         -3.39675        3.04502        1.69944
O         -2.91061        3.13307       -2.29972
H         -4.07788        2.77673       -0.68102
H         -3.61544        4.47526       -0.86513
H         -2.20268        3.72957       -2.57375
O         -3.09845       -1.41097       -0.98735
S         -4.37769       -1.60678        0.06265
O         -5.26450       -0.46926       -0.20275
O         -4.90182       -2.90342       -0.35617
O         -3.79630       -1.58849        1.42319
H          2.97847       -4.18689       -1.15052
H          0.70924        0.61907       -3.59914
H          0.72202       -3.15178       -1.21890
H         -0.84674       -3.42290        0.75359
