62
ZTX_324_solv.log	Energy: -1483137.7064451
C         -1.66597        0.99841        1.02065
N         -1.21602        0.86217        2.38418
C         -0.32725       -0.05442        2.76355
C         -0.92654        1.92553        0.02984
H         -2.64450        1.48976        1.06166
N          0.18900       -0.02426        3.97861
H          0.00053        0.75978        4.59615
H         -1.61646        1.47425        3.08974
N          0.08068       -0.98337        1.87393
C          0.45243       -1.42181       -0.44615
C          1.78387       -0.99298        0.28950
C          1.47891       -1.38492        1.73864
O          0.55120       -2.75479       -0.83761
O          0.10903       -0.61319       -1.50998
H          2.11563       -0.86143        2.46168
H          1.59731       -2.46891        1.87438
O         -1.61136        2.40551       -0.86787
C         -1.84343       -0.37151        0.37845
C         -0.67012       -1.32442        0.66195
N         -1.36386       -2.57930        0.81327
C         -2.67835       -2.42598        0.94936
N         -3.00842       -1.11554        0.88244
H         -1.94011       -0.24992       -0.70899
N         -3.50806       -3.42719        1.13249
C         -4.34060       -0.62050        0.65149
H         -4.50922       -3.29364        1.21677
H          0.88023       -0.63075       -2.11252
C          2.22844        0.47639        0.14847
O         -4.56167       -0.44022       -0.73318
H         -5.07810       -1.33505        1.02956
H         -4.48538        0.32823        1.18031
C         -4.61111        0.83429       -1.19836
O         -4.77874        1.81533       -0.50716
N         -4.41120        0.83257       -2.53149
H         -4.44995       -0.02810       -3.07280
O         -4.65558        1.98743       -3.21623
H         -3.79838        2.43368       -3.29695
H          3.25947        0.46963        0.51997
H          2.29208        0.73765       -0.91539
N          0.38583        2.18070        0.13828
C          1.51919        1.62472        0.87723
C          2.37112        2.91407        0.97510
C          2.10036        3.58962       -0.36878
O          0.89345        2.99363       -0.86764
H          1.21952        1.36969        1.89384
C          3.83570        2.78607        1.35959
H          1.89792        3.51293        1.76653
H          1.95551        4.67480       -0.26967
H          2.88933        3.38739       -1.10461
O          4.61096        2.32721        0.27397
H          4.18748        3.77775        1.69539
H          3.91176        2.10438        2.22594
H          5.49772        2.13710        0.59963
O          2.84084       -1.84665       -0.13875
S          3.63574       -1.63373       -1.61191
O          4.74605       -0.72813       -1.32403
O          4.01228       -3.01321       -1.90434
O          2.61509       -1.07109       -2.51953
H         -3.14158       -4.37138        1.20420
H          0.75672       -0.79262        4.32103
H         -0.88689       -3.47509        0.77874
H          1.46979       -3.04093       -0.71034
