62
ZTX_397_solv.log	Energy: -1483137.6740405
C         -1.25394        1.84914        0.24641
N         -0.72988        2.26257        1.52427
C          0.03037        1.46649        2.27235
C         -0.42355        2.06792       -1.03944
H         -2.12215        2.48455        0.04127
N          0.65816        1.93579        3.33513
H          0.65368        2.93136        3.53624
H         -0.95317        3.19263        1.86718
N          0.19440        0.18306        1.89536
C          0.28193       -1.29437        0.00409
C          1.72369       -0.89668        0.51259
C          1.46916       -0.51512        1.97393
O          0.02231       -2.63779        0.15676
O          0.13995       -0.87981       -1.31346
H          2.25733        0.12796        2.38311
H          1.38820       -1.42211        2.58896
O         -1.06786        2.22860       -2.06968
C         -1.73287        0.40224        0.30996
C         -0.70623       -0.52405        0.98472
N         -1.57155       -1.42212        1.71250
C         -2.80459       -0.93761        1.83554
N         -2.93176        0.21638        1.14039
H         -1.93660        0.05459       -0.71049
N         -3.75776       -1.51334        2.53168
C         -4.20653        0.79535        0.82371
H         -4.70713       -1.15647        2.53540
H         -0.61093       -1.35057       -1.70310
C          2.42622        0.22635       -0.27280
O         -4.94693        0.00802       -0.09307
H         -4.81781        0.85808        1.73026
H         -4.05494        1.80690        0.43257
C         -4.75595        0.24553       -1.40335
O         -4.00202        1.08980       -1.84624
N         -5.54350       -0.53097       -2.18294
H         -5.30546       -0.58864       -3.17100
O         -6.14137       -1.64825       -1.66320
H         -7.07591       -1.42134       -1.54474
H          3.45851        0.17039        0.09057
H          2.45035       -0.03284       -1.33769
N          0.92076        2.09770       -1.03299
C          1.99699        1.69373       -0.12709
C          3.07808        2.68540       -0.61534
C          2.82001        2.73375       -2.11871
O          1.47754        2.26169       -2.29817
H          1.75373        1.96720        0.89938
C          4.51463        2.37754       -0.22897
H          2.81045        3.66051       -0.17899
H          2.90573        3.74940       -2.52976
H          3.48125        2.05547       -2.67839
O          4.65985        2.19639        1.16337
H          4.85836        1.45075       -0.71161
H          5.16261        3.19052       -0.60137
H          4.41396        3.02164        1.59949
O          2.58617       -2.02706        0.59607
S          3.21956       -2.87594       -0.68411
O          4.04380       -1.95569       -1.46950
O          3.95573       -3.90989        0.03472
O          2.03185       -3.37005       -1.42040
H         -3.55979       -2.36503        3.04779
H          1.11730        1.30680        3.98573
H         -1.23877       -2.26929        2.16256
H          0.66948       -3.11251       -0.41452
