62
ZTX_223_solv.log	Energy: -1483136.8623193
C         -1.43090        1.40949       -0.38473
N         -1.34456        1.24409        1.04522
C         -0.65249        0.25779        1.61326
C         -0.39472        2.26409       -1.14633
H         -2.35115        1.97100       -0.57906
N         -0.45375        0.23950        2.91819
H         -0.72374        1.03429        3.48977
H         -1.85929        1.88689        1.64074
N         -0.11554       -0.69628        0.82754
C          0.77585       -1.18630       -1.33589
C          1.91399       -0.92612       -0.27567
C          1.20812       -1.26800        1.04673
O          0.89410       -2.49554       -1.76872
O          0.76831       -0.29050       -2.39210
H          1.69485       -0.81610        1.91732
H          1.15156       -2.35467        1.19275
O         -0.80893        2.81714       -2.16048
C         -1.55932        0.05549       -1.07882
C         -0.57360       -0.98827       -0.52768
N         -1.38923       -2.18596       -0.53883
C         -2.69325       -1.88528       -0.58528
N         -2.86199       -0.57754       -0.86804
H         -1.39395        0.18758       -2.15571
N         -3.66971       -2.74303       -0.41300
C         -4.07144        0.01110       -1.37781
H         -4.61688       -2.37954       -0.26016
H          1.59550       -0.38359       -2.88671
C          2.50950        0.50069       -0.29109
O         -4.75926        0.77271       -0.40299
H         -3.80458        0.72068       -2.16876
H         -4.72587       -0.76483       -1.79408
C         -5.62323        0.12042        0.39736
O         -5.82792       -1.07885        0.36092
N         -6.25425        0.99623        1.20481
H         -5.88521        1.93678        1.32969
O         -6.96367        0.49072        2.25612
H         -7.89736        0.54372        2.00125
H          3.39293        0.38863        0.34788
H          2.87932        0.70599       -1.30589
N          0.88306        2.37268       -0.75091
C          1.76038        1.73470        0.23247
C          2.69691        2.93152        0.50530
C          2.80976        3.58128       -0.87260
O          1.67770        3.11253       -1.61860
H          1.21155        1.53610        1.15470
C          4.02710        2.63454        1.16797
H          2.14488        3.61030        1.17250
H          2.78297        4.67876       -0.82896
H          3.71340        3.25809       -1.41094
O          4.62588        3.87614        1.47499
H          3.85736        2.02939        2.07800
H          4.67334        2.04738        0.49247
H          5.51954        3.70445        1.79225
O          2.98834       -1.78469       -0.61484
S          3.98252       -2.48201        0.52434
O          5.15316       -2.79265       -0.29344
O          4.19611       -1.45291        1.55547
O          3.24503       -3.65572        1.00949
H         -3.45268       -3.70458       -0.16902
H         -0.04399       -0.57097        3.37100
H         -1.04394       -3.06455       -0.15992
H          0.17605       -2.66685       -2.39524
