62
ZTX_149_solv.log	Energy: -1483139.1889550
C          1.06463       -1.88992        0.29949
N          0.62388       -2.15565        1.64724
C          0.00111       -1.24534        2.39432
C          0.13255       -2.15212       -0.90440
H          1.86821       -2.60246        0.08675
N         -0.54764       -1.58247        3.54689
H         -0.60118       -2.55783        3.82520
H          0.81624       -3.06825        2.05040
N         -0.10666        0.01627        1.93413
C         -0.26646        1.37156       -0.03510
C         -1.68003        1.09775        0.60947
C         -1.31951        0.81694        2.07119
O         -0.02510        2.73522        0.07471
O         -0.14221        0.92853       -1.33511
H         -2.10273        0.26371        2.60259
H         -1.11762        1.75865        2.60047
O          0.69354       -2.44869       -1.95386
C          1.63383       -0.47954        0.18683
C          0.74950        0.57104        0.88528
N          1.74778        1.44793        1.44911
C          2.96176        0.90009        1.45675
N          2.92847       -0.31362        0.86134
H          1.74036       -0.21905       -0.87418
N          4.02991        1.45773        1.98074
C          4.08383       -1.09058        0.52694
H          4.95579        1.14825        1.66508
H         -0.86045        1.38257       -1.82473
C         -2.51489       -0.04733       -0.00982
O          4.63868       -0.73331       -0.72957
H          4.83244       -1.00195        1.32305
H          3.79582       -2.14190        0.43554
C          5.67967        0.11195       -0.73211
O          6.14856        0.63395        0.26759
N          6.13922        0.36510       -1.97400
H          7.04195        0.82834       -2.05802
O          5.78816       -0.44064       -3.02163
H          5.13303        0.05638       -3.53466
H         -3.48997        0.09308        0.47216
H         -2.66316        0.14961       -1.07943
N         -1.20178       -2.03563       -0.81993
C         -2.16969       -1.53352        0.15498
C         -3.35902       -2.45152       -0.21077
C         -3.21016       -2.60275       -1.72477
O         -1.86260       -2.21648       -2.02773
H         -1.85457       -1.79218        1.16698
C         -4.74882       -2.01221        0.22642
H         -3.15339       -3.42320        0.26492
H         -3.37677       -3.63386       -2.06597
H         -3.87435       -1.92255       -2.27822
O         -5.71835       -2.97367       -0.13049
H         -4.75109       -1.81481        1.31396
H         -5.03952       -1.08138       -0.28240
H         -5.51243       -3.79196        0.33804
O         -2.46901        2.27434        0.61695
S         -3.18521        2.86810       -0.76635
O         -4.51562        2.25294       -0.80069
O         -3.18081        4.30363       -0.50079
O         -2.31807        2.44698       -1.88926
H          3.94419        2.38295        2.39087
H         -0.89708       -0.87256        4.18196
H          1.52649        2.35314        1.85320
H          0.78387        2.93036       -0.41983
