62
ZTX_303_solv.log	Energy: -1483138.6962220
C         -1.46965        1.45034        0.78912
N         -0.97608        1.57071        2.13963
C         -0.14742        0.68024        2.68125
C         -0.67973        2.06328       -0.39006
H         -2.39951        2.02707        0.73835
N          0.42747        0.91580        3.84631
H          0.33595        1.82444        4.29053
H         -1.29157        2.35282        2.70655
N          0.14206       -0.44713        2.00000
C          0.37730       -1.34672       -0.20697
C          1.78050       -0.95217        0.42699
C          1.48402       -1.01178        1.92771
O          0.28282       -2.71853       -0.39331
O          0.07869       -0.63998       -1.36041
H          2.19750       -0.42939        2.52229
H          1.49404       -2.05499        2.27228
O         -1.34623        2.40158       -1.36187
C         -1.79783       -0.00409        0.47619
C         -0.67568       -0.96561        0.90239
N         -1.44223       -2.11106        1.33055
C         -2.71557       -1.80262        1.56066
N         -2.95805       -0.51454        1.22248
H         -1.97376       -0.11345       -0.60248
N         -3.59785       -2.64352        2.04794
C         -4.28083        0.00937        1.02918
H         -4.57323       -2.38863        2.15701
H          0.77341       -0.85935       -2.00712
C          2.36235        0.40698       -0.00682
O         -4.83341       -0.41013       -0.20408
H         -4.94156       -0.35831        1.82224
H         -4.24939        1.10256        1.08282
C         -4.80935        0.46560       -1.23609
O         -4.37851        1.59528       -1.17522
N         -5.38972       -0.10620       -2.31755
H         -5.47289       -1.11985       -2.36457
O         -5.20651        0.51603       -3.52198
H         -6.04943        0.94507       -3.73227
H          3.39385        0.38783        0.36180
H          2.44091        0.43678       -1.10206
N          0.65319        2.21832       -0.35453
C          1.76723        1.74108        0.46684
C          2.71758        2.94078        0.25166
C          2.48752        3.26053       -1.22198
O          1.18795        2.73784       -1.53101
H          1.48749        1.73831        1.52097
C          4.17113        2.83347        0.70328
H          2.28891        3.76077        0.84759
H          2.50109        4.34008       -1.42688
H          3.20695        2.75429       -1.88334
O          4.98590        1.93016       -0.00922
H          4.60275        3.84953        0.67703
H          4.18372        2.50686        1.75400
H          5.07287        2.23517       -0.91993
O          2.75772       -1.96391        0.20682
S          3.42164       -2.25300       -1.28700
O          4.43681       -1.22608       -1.51614
O          3.93213       -3.60690       -1.10775
O          2.26170       -2.15685       -2.21255
H         -3.31124       -3.58365        2.30356
H          0.94720        0.18711        4.32474
H         -1.02341       -3.01321        1.53417
H          0.89991       -2.93665       -1.11531
