62
ZTX_496_solv.log	Energy: -1483145.2816515
C          1.39780        1.19573        0.68407
N          1.49902        1.53696       -0.71377
C          0.85513        0.86252       -1.66445
C          0.28679        1.80912        1.56503
H          2.29346        1.60028        1.16762
N          0.80797        1.32073       -2.90189
H          1.16591        2.24583       -3.11989
H          2.10235        2.30900       -0.98253
N          0.20486       -0.26888       -1.32919
C         -0.91510       -1.47470        0.40361
C         -1.93553       -0.77698       -0.59342
C         -1.09803       -0.64054       -1.86641
O         -0.98990       -2.85680        0.30149
O         -1.04358       -1.03713        1.71214
H         -1.48529        0.13012       -2.54420
H         -1.05422       -1.60182       -2.39710
O          0.57956        1.98472        2.74345
C          1.41361       -0.32013        0.87206
C          0.50777       -1.05716       -0.13413
N          1.32696       -2.19797       -0.47286
C          2.60125       -2.02397       -0.12122
N          2.73066       -0.91054        0.63165
H          1.09346       -0.55773        1.89451
N          3.58730       -2.83124       -0.43556
C          3.84129       -0.61397        1.49335
H          4.55018       -2.50490       -0.29952
H         -1.94519       -1.27923        1.99395
C         -2.51993        0.57454       -0.13543
O          4.69146        0.38705        0.96312
H          3.45105       -0.19715        2.42829
H          4.41053       -1.52544        1.71421
C          5.65941       -0.00810        0.11600
O          5.87188       -1.16402       -0.19966
N          6.32789        1.06591       -0.35387
H          6.26337        1.95701        0.13507
O          7.50777        0.83657       -1.00348
H          7.32321        0.95960       -1.94688
H         -3.33780        0.73579       -0.84636
H         -2.98242        0.46590        0.85471
N         -0.93280        2.10013        1.08526
C         -1.68475        1.86341       -0.14570
C         -2.55665        3.14052       -0.12260
C         -2.84414        3.31056        1.36582
O         -1.82172        2.56834        2.04665
H         -1.02955        1.93945       -1.01298
C         -3.79043        3.14120       -1.00936
H         -1.89905        3.96006       -0.45230
H         -2.80346        4.36015        1.68841
H         -3.81216        2.87518        1.65593
O         -3.48040        2.82143       -2.34883
H         -4.51986        2.39488       -0.66180
H         -4.28137        4.12719       -0.93153
H         -2.88393        3.49975       -2.68927
O         -3.00508       -1.64793       -0.94586
S         -4.21144       -2.05434        0.12066
O         -5.13263       -0.91993        0.18700
O         -4.74584       -3.25605       -0.50779
O         -3.48445       -2.30364        1.39297
H          3.40604       -3.62935       -1.03608
H          0.44667        0.74564       -3.65563
H          1.01092       -2.92651       -1.10571
H         -1.85028       -3.11304        0.67724
