62
ZTX_123_solv.log	Energy: -1483140.3927754
C          1.07718       -1.91715        0.05719
N          0.61351       -2.33698        1.35694
C         -0.06475       -1.53350        2.17459
C          0.18085       -2.08313       -1.19101
H          1.90923       -2.57849       -0.20508
N         -0.63640       -2.00958        3.26573
H         -0.66099       -3.01006        3.43895
H          0.82045       -3.28356        1.66342
N         -0.20204       -0.23418        1.84397
C         -0.33468        1.32811        0.03385
C         -1.76058        0.95017        0.59084
C         -1.44394        0.51206        2.02373
O         -0.13872        2.67668        0.30504
O         -0.15359        1.03770       -1.30225
H         -2.23028       -0.12065        2.45277
H         -1.29352        1.39077        2.66634
O          0.77183       -2.26072       -2.25094
C          1.60664       -0.48810        0.11155
C          0.67242        0.45485        0.89505
N          1.62774        1.28523        1.58833
C          2.85616        0.77075        1.57433
N          2.87844       -0.36284        0.83736
H          1.73097       -0.11052       -0.91157
N          3.88864        1.29042        2.19858
C          4.06830       -1.05925        0.45058
H          4.83618        1.03933        1.89506
H         -0.86872        1.52532       -1.76388
C         -2.53693       -0.13881       -0.18318
O          4.66974       -0.51066       -0.71257
H          4.77882       -1.07144        1.28559
H          3.81293       -2.09131        0.19375
C          5.70227        0.32809       -0.54341
O          6.12428        0.69538        0.54263
N          6.21064        0.76694       -1.71188
H          7.10955        1.24455       -1.68840
O          5.90534        0.13518       -2.88521
H          5.26159        0.70291       -3.33569
H         -3.53803       -0.06520        0.25688
H         -2.63335        0.15651       -1.23571
N         -1.15782       -2.01717       -1.12453
C         -2.15809       -1.62348       -0.13282
C         -3.30812       -2.54497       -0.60147
C         -3.14741       -2.51854       -2.11809
O         -1.79126       -2.11540       -2.35870
H         -1.86206       -1.95816        0.86095
C         -4.70265       -2.20391       -0.10497
H         -3.05435       -3.55265       -0.23647
H         -3.31846       -3.50091       -2.57967
H         -3.80057       -1.77177       -2.59413
O         -4.74936       -2.09843        1.30190
H         -5.03679       -1.23772       -0.51121
H         -5.40742       -2.96794       -0.47777
H         -4.50026       -2.95364        1.67412
O         -2.58071        2.10003        0.70141
S         -3.26404        2.82802       -0.63272
O         -4.58347        2.20382       -0.77067
O         -3.28876        4.22854       -0.22061
O         -2.35965        2.53708       -1.76767
H          3.75865        2.15660        2.71286
H         -1.03249       -1.38280        3.95858
H          1.36671        2.13159        2.08565
H          0.67256        2.95538       -0.14293
