62
ZTX_383_solv.log	Energy: -1483139.9545228
C          1.44042        1.25620        0.60855
N          1.56525        1.49855       -0.80781
C          0.94667        0.74698       -1.71649
C          0.30717        1.91827        1.42497
H          2.32453        1.69865        1.08018
N          0.93105        1.09990       -2.98863
H          1.29352        2.00445       -3.27496
H          2.17810        2.24559       -1.12196
N          0.28736       -0.35388       -1.30655
C         -0.89635       -1.38825        0.50370
C         -1.87763       -0.78483       -0.57825
C         -1.00543       -0.76059       -1.83632
O         -0.97754       -2.76085        0.57748
O         -1.14679       -0.78238        1.72809
H         -1.37238       -0.05344       -2.58947
H         -0.95654       -1.76574       -2.27781
O          0.57339        2.16046        2.59851
C          1.46122       -0.24319        0.90022
C          0.55504       -1.04792       -0.04796
N          1.36041       -2.22569       -0.27880
C          2.63814       -2.02574        0.04671
N          2.77662       -0.84895        0.69666
H          1.15512       -0.40078        1.94310
N          3.62117       -2.86083       -0.19803
C          3.89165       -0.48500        1.52692
H          4.58360       -2.52003       -0.10290
H         -0.74234       -1.32114        2.42350
C         -2.47643        0.59388       -0.24263
O          4.73188        0.48031        0.92148
H          3.50638       -0.00537        2.43362
H          4.46729       -1.37578        1.80739
C          5.68204        0.03225        0.08015
O          5.88363       -1.14078       -0.17277
N          6.34431        1.07517       -0.46295
H          6.29412        1.99224       -0.02280
O          7.50724        0.80463       -1.12679
H          7.30170        0.88225       -2.07075
H         -3.29467        0.71661       -0.95998
H         -2.94607        0.54671        0.74721
N         -0.89961        2.18480        0.90197
C         -1.63604        1.87829       -0.32581
C         -2.49082        3.16496       -0.39003
C         -2.83175        3.38754        1.07925
O         -1.80281        2.71507        1.81914
H         -0.96327        1.90260       -1.18437
C         -3.65297        3.23806       -1.37788
H         -1.79554        3.95939       -0.70142
H         -2.83768        4.45104        1.35587
H         -3.79004        2.92906        1.36581
O         -4.76408        2.41488       -1.10341
H         -3.96237        4.29521       -1.45078
H         -3.27959        2.94444       -2.37070
H         -5.21054        2.74302       -0.31431
O         -2.92675       -1.69161       -0.90523
S         -4.19075       -2.13214        0.07777
O         -4.96786       -0.92821        0.37705
O         -4.85693       -3.10311       -0.78334
O         -3.54143       -2.72082        1.27318
H          3.43693       -3.70291       -0.73421
H          0.58227        0.46521       -3.69938
H          1.04016       -2.99948       -0.85318
H         -1.89216       -2.96729        0.87904
