62
ZTX_71_solv.log	Energy: -1483143.9876893
C          1.37217        1.22118        0.64597
N          1.48458        1.52268       -0.75993
C          0.90041        0.78334       -1.70102
C          0.21989        1.81277        1.48759
H          2.24184        1.67609        1.13190
N          0.86586        1.19477       -2.95515
H          1.17748        2.13089       -3.19623
H          2.06021        2.31079       -1.04279
N          0.29543       -0.36619       -1.34357
C         -0.83444       -1.53058        0.41182
C         -1.84745       -0.91678       -0.64795
C         -0.97327       -0.81687       -1.89990
O         -0.86316       -2.91698        0.37971
O         -1.01502       -1.03114        1.69193
H         -1.36477       -0.10576       -2.63688
H         -0.87325       -1.80546       -2.36948
O          0.48133        2.02954        2.66645
C          1.44566       -0.28581        0.88383
C          0.58874       -1.09369       -0.10850
N          1.45011       -2.22188       -0.37529
C          2.71200       -1.98398       -0.01477
N          2.78874       -0.82957        0.68112
H          1.12029       -0.50214        1.90945
N          3.73118       -2.77088       -0.27039
C          3.88142       -0.43716        1.52732
H          4.67798       -2.39640       -0.14815
H         -1.91608       -1.28659        1.96252
C         -2.49670        0.43278       -0.27299
O          4.68439        0.57511        0.94729
H          3.46995        0.00639        2.44078
H          4.49274       -1.30856        1.79296
C          5.66099        0.18448        0.10788
O          5.92110       -0.97405       -0.15806
N          6.27654        1.26434       -0.41804
H          6.17924        2.17236        0.03268
O          7.45870        1.05671       -1.07102
H          7.25971        1.13199       -2.01651
H         -3.27838        0.54350       -1.03425
H         -3.01520        0.33587        0.69056
N         -1.00322        2.03604        0.97964
C         -1.71483        1.75670       -0.26808
C         -2.64544        2.99144       -0.27795
C         -2.95243        3.18840        1.20603
O         -1.93184        2.47241        1.91529
H         -1.03702        1.85416       -1.11701
C         -3.88343        2.93712       -1.16072
H         -2.02800        3.83417       -0.62646
H         -2.92950        4.24472        1.50752
H         -3.91826        2.74665        1.49304
O         -4.59125        4.15699       -1.11241
H         -3.59110        2.67601       -2.19421
H         -4.58050        2.16406       -0.80534
H         -4.01372        4.84879       -1.45805
O         -2.87579       -1.83943       -0.99021
S         -4.09512       -2.25141        0.05978
O         -5.05837       -1.15076        0.05913
O         -4.56730       -3.49467       -0.53609
O         -3.39481       -2.42447        1.35952
H          3.58796       -3.59726       -0.84256
H          0.54763        0.57970       -3.69656
H          1.16992       -2.99227       -0.97461
H         -1.72550       -3.17858        0.74894
