62
ZTX_16_solv.log	Energy: -1483139.4805210
C          1.01353       -1.99830        0.08722
N          0.59900       -2.37553        1.41649
C         -0.02891       -1.53612        2.23855
C          0.05621       -2.17339       -1.11269
H          1.81544       -2.68730       -0.19732
N         -0.56642       -1.97016        3.36392
H         -0.60546       -2.96477        3.56590
H          0.79849       -3.31834        1.73883
N         -0.15295       -0.24407        1.87777
C         -0.32373        1.27859        0.03835
C         -1.73498        0.94854        0.66378
C         -1.36451        0.54164        2.09323
O         -0.08396        2.62797        0.26815
O         -0.20421        0.95312       -1.29632
H         -2.14591       -0.05486        2.57904
H         -1.15916        1.43344        2.70169
O          0.59229       -2.38950       -2.19453
C          1.57794       -0.58220        0.08337
C          0.69764        0.40128        0.87833
N          1.69796        1.22568        1.51326
C          2.91310        0.68365        1.46108
N          2.87924       -0.46945        0.75646
H          1.67003       -0.23359       -0.95341
N          3.98329        1.19535        2.02569
C          4.03524       -1.21537        0.35739
H          4.90953        0.91488        1.68541
H         -0.92421        1.45095       -1.73964
C         -2.56654       -0.13896       -0.05458
O          4.60548       -0.74398       -0.85262
H          4.77661       -1.20626        1.16565
H          3.74418       -2.25209        0.16503
C          5.64709        0.10736       -0.76765
O          6.11765        0.52196        0.27586
N          6.05736        0.45385       -2.00354
H          5.78164       -0.10175       -2.81104
O          7.24444        1.11850       -2.11549
H          7.01849        2.04788       -2.27338
H         -3.56413       -0.02516        0.38435
H         -2.67360        0.12363       -1.11493
N         -1.27682       -2.08467       -0.98333
C         -2.22568       -1.63188        0.03490
C         -3.40801       -2.56045       -0.33667
C         -3.30653       -2.62973       -1.85985
O         -1.97146       -2.21227       -2.18013
H         -1.89220       -1.93650        1.02706
C         -4.78570       -2.22824        0.21234
H         -3.14306       -3.54508        0.07485
H         -3.47192       -3.64627       -2.24439
H         -3.99145       -1.93034       -2.35621
O         -5.37431       -1.16134       -0.49888
H         -5.41101       -3.13560        0.13727
H         -4.68691       -1.99081        1.28702
H         -6.17795       -0.89815       -0.03668
O         -2.52152        2.12122        0.78043
S         -3.22871        2.84811       -0.54141
O         -4.57176        2.26659       -0.62102
O         -3.19316        4.25579       -0.15384
O         -2.37626        2.50924       -1.70293
H          3.89755        2.07848        2.51998
H         -0.92371       -1.31694        4.05335
H          1.47764        2.09612        1.98790
H          0.71263        2.87498       -0.22290
