62
ZTX_8_solv.log	Energy: -1483138.2587789
C         -1.40942        1.55726        0.61584
N         -0.85736        1.84661        1.91680
C         -0.00379        1.02974        2.53211
C         -0.66854        2.00869       -0.66205
H         -2.33852        2.13119        0.53101
N          0.62682        1.41680        3.62567
H          0.56883        2.38088        3.93945
H         -1.14267        2.70035        2.38791
N          0.24539       -0.18127        1.99432
C          0.36421       -1.42063       -0.05256
C          1.78731       -0.94328        0.43278
C          1.57618       -0.77998        1.94044
O          0.35793       -2.80806        0.00198
O          0.00531       -0.95116       -1.29925
H          2.32534       -0.12682        2.40374
H          1.59241       -1.76037        2.43653
O         -1.37092        2.22535       -1.64256
C         -1.75945        0.07787        0.50391
C         -0.63745       -0.83426        1.02842
N         -1.40326       -1.88385        1.65958
C         -2.66884       -1.52584        1.87062
N         -2.91090       -0.30987        1.33194
H         -1.95751       -0.17025       -0.54760
N         -3.54338       -2.26746        2.50957
C         -4.23308        0.19530        1.09238
H         -4.51355       -1.98737        2.60521
H          0.71747       -1.26162       -1.89811
C          2.34093        0.34706       -0.21320
O         -4.82715       -0.40258       -0.04405
H         -4.87374       -0.03505        1.95000
H         -4.18978        1.28303        0.97393
C         -4.80070        0.29261       -1.20579
O         -4.38471        1.42302       -1.32553
N         -5.27212       -0.49032       -2.20502
H         -5.83313       -1.30902       -1.97756
O         -5.60820        0.13467       -3.37506
H         -4.89814       -0.07105       -4.00130
H          3.38572        0.33919        0.11776
H          2.35416        0.23513       -1.30487
N          0.66638        2.16076       -0.69753
C          1.80717        1.74580        0.11988
C          2.79344        2.86867       -0.28510
C          2.44839        3.09992       -1.75506
O          1.15404        2.51594       -1.95035
H          1.58854        1.88289        1.17868
C          4.26316        2.60711       -0.03373
H          2.49912        3.75564        0.29531
H          2.40993        4.16738       -2.01416
H          3.14074        2.58312       -2.43573
O          4.43322        2.32519        1.33922
H          4.61762        1.77181       -0.66343
H          4.83509        3.50288       -0.33582
H          5.35266        2.07268        1.48101
O          2.74719       -1.97394        0.27817
S          3.36442       -2.38754       -1.21299
O          4.57280       -1.57046       -1.36579
O          3.60961       -3.81598       -1.03977
O          2.30981       -2.05833       -2.19775
H         -3.25230       -3.15058        2.91791
H          1.17364        0.75843        4.17093
H         -0.97568       -2.72180        2.04401
H         -0.46630       -3.11533       -0.40160
