62
ZTX_216_solv.log	Energy: -1483144.3191085
C          0.98731       -1.98317       -0.00384
N          0.51768       -2.41275        1.29029
C         -0.13333       -1.60345        2.12381
C          0.08000       -2.10470       -1.25027
H          1.80050       -2.66132       -0.28202
N         -0.71239       -2.07979        3.21083
H         -0.77203       -3.08195        3.36472
H          0.69939       -3.36969        1.58005
N         -0.23583       -0.29512        1.81536
C         -0.33396        1.27276        0.00838
C         -1.77531        0.94044        0.58471
C         -1.45566        0.47895        2.00918
O          0.00632        2.59628        0.25108
O         -0.18554        0.93007       -1.32585
H         -2.25558       -0.13438        2.44118
H         -1.27651        1.34951        2.65536
O          0.66169       -2.28258       -2.31495
C          1.55635       -0.57112        0.07461
C          0.64839        0.38749        0.87066
N          1.62384        1.18780        1.56889
C          2.84123        0.65189        1.53270
N          2.82837       -0.48824        0.80495
H          1.69358       -0.18239       -0.94240
N          3.89513        1.15470        2.13540
C          3.99142       -1.23721        0.43435
H          4.83008        0.88752        1.80868
H         -0.83124        1.46437       -1.82260
C         -2.59522       -0.10330       -0.19903
O          4.59728       -0.76209       -0.75687
H          4.70959       -1.23596        1.26319
H          3.70207       -2.27170        0.22697
C          5.63076        0.09486       -0.63821
O          6.06685        0.50948        0.42007
N          6.07695        0.44664       -1.86024
H          5.82862       -0.10841       -2.67695
O          7.26433        1.11629       -1.93420
H          7.03949        2.04491       -2.09795
H         -3.58844       -0.02145        0.25750
H         -2.70222        0.21556       -1.24455
N         -1.25733       -2.00327       -1.17840
C         -2.24630       -1.59785       -0.17990
C         -3.42018       -2.48802       -0.65647
C         -3.24794       -2.47661       -2.17377
O         -1.89637       -2.05868       -2.41084
H         -1.95544       -1.95234        0.80865
C         -4.80613       -2.09622       -0.19052
H         -3.20619       -3.49935       -0.27996
H         -3.40639       -3.46728       -2.62244
H         -3.90389       -1.74306       -2.66523
O         -4.80235       -2.06616        1.22114
H         -5.09269       -1.11766       -0.61493
H         -5.52840       -2.83778       -0.57664
H         -5.66040       -1.74140        1.51701
O         -2.56219        2.11531        0.74903
S         -3.19099        2.95784       -0.53666
O         -4.36143        2.21886       -1.00968
O         -3.47594        4.24440        0.08632
O         -2.07353        2.98687       -1.51644
H          3.79209        2.02529        2.64825
H         -1.09200       -1.45323        3.91302
H          1.40560        2.08658        1.98720
H         -0.57007        3.13751       -0.31784
