62
ZTX_254_solv.log	Energy: -1483137.4917427
C          1.08166       -2.06134        0.23131
N          0.55904       -2.43710        1.52138
C         -0.05999       -1.57060        2.32097
C          0.19300       -2.14417       -1.03057
H          1.86067       -2.78986       -0.01783
N         -0.69009       -1.98533        3.40465
H         -0.80614       -2.97820        3.58457
H          0.68078       -3.39524        1.83706
N         -0.07721       -0.26605        1.98156
C         -0.07957        1.23906        0.10870
C         -1.53262        1.01115        0.68655
C         -1.25176        0.58136        2.13010
O          0.34664        2.54020        0.25227
O         -0.05565        0.82405       -1.21596
H         -2.08924        0.03485        2.57944
H         -1.02666        1.46440        2.74406
O          0.78966       -2.34983       -2.08232
C          1.72746       -0.68112        0.29729
C          0.85498        0.34506        1.03317
N          1.85640        1.11717        1.72671
C          3.02973        0.48841        1.78220
N          2.98530       -0.65150        1.05352
H          1.92004       -0.33773       -0.72798
N          4.04984        0.91596        2.48960
C          4.12789       -1.38134        0.56592
H          4.96645        0.49025        2.40743
H          0.73587        1.18706       -1.63825
C         -2.40514       -0.00173       -0.08079
O          4.34599       -1.13963       -0.80932
H          5.01547       -1.13582        1.15987
H          3.94210       -2.45790        0.63870
C          4.83132        0.07515       -1.15199
O          5.21717        0.90524       -0.35898
N          4.76280        0.22415       -2.49507
H          4.65827       -0.59689       -3.08831
O          5.47642        1.25302       -3.04493
H          4.82780        1.93716       -3.26869
H         -3.40048        0.15059        0.35450
H         -2.47079        0.30619       -1.13119
N         -1.14123       -1.99134       -0.98985
C         -2.13835       -1.51556       -0.02750
C         -3.34267       -2.34341       -0.52822
C         -3.12755       -2.35403       -2.04075
O         -1.74481       -2.03076       -2.24173
H         -1.89187       -1.86900        0.97472
C         -4.73348       -1.89713       -0.10270
H         -3.19184       -3.36399       -0.14242
H         -3.33944       -3.33277       -2.49301
H         -3.72072       -1.57978       -2.54988
O         -5.71750       -2.79283       -0.57308
H         -4.76861       -1.79377        0.99724
H         -4.97746       -0.91689       -0.53773
H         -5.54837       -3.65531       -0.17408
O         -2.24674        2.23520        0.82749
S         -2.83673        3.17649       -0.40894
O         -3.84566        2.39263       -1.12409
O         -3.35503        4.30602        0.35447
O         -1.64565        3.48872       -1.23355
H          3.97427        1.79676        2.98909
H         -1.04175       -1.32131        4.08660
H          1.63968        1.96663        2.23903
H         -0.26245        3.09023       -0.29195
