62
ZTX_233_solv.log	Energy: -1483137.7051461
C         -1.39401        1.44623        0.99133
N         -0.65636        1.34658        2.22739
C          0.30844        0.44627        2.40770
C         -0.86682        2.33809       -0.15535
H         -2.33996        1.94509        1.22641
N          1.08309        0.49085        3.47606
H          1.02640        1.27732        4.11613
H         -0.90745        1.95859        2.99856
N          0.51614       -0.47714        1.45005
C          0.34636       -0.94956       -0.88977
C          1.82890       -0.60774       -0.44687
C          1.83646       -0.95344        1.05472
O          0.24456       -2.20282       -1.46245
O         -0.19603       -0.02435       -1.76133
H          2.62785       -0.42687        1.60078
H          1.92659       -2.02919        1.24617
O         -1.71862        2.82653       -0.88889
C         -1.71414        0.05669        0.44874
C         -0.48313       -0.86421        0.45725
N         -1.08192       -2.13216        0.80031
C         -2.29192       -1.98112        1.33454
N         -2.67700       -0.68581        1.27696
H         -2.09583        0.14733       -0.57549
N         -3.00337       -2.96466        1.83556
C         -4.03843       -0.27074        1.46839
H         -3.95008       -2.82364        2.17088
H          0.32066       -0.02983       -2.57928
C          2.26605        0.85174       -0.68418
O         -4.88658       -0.68790        0.41386
H         -4.43807       -0.72888        2.37983
H         -4.06952        0.81830        1.58241
C         -5.01957        0.14366       -0.64353
O         -4.44460        1.20338       -0.76191
N         -5.92297       -0.37199       -1.50957
H         -6.15176       -1.36320       -1.46456
O         -5.96599        0.17732       -2.76166
H         -6.77340        0.71194       -2.79094
H          3.34144        0.81158       -0.47168
H          2.16128        1.07765       -1.75497
N          0.44471        2.56354       -0.34574
C          1.71351        2.02329        0.13908
C          2.56864        3.30707        0.00145
C          1.99428        3.95442       -1.25776
O          0.72325        3.32677       -1.47332
H          1.64966        1.79703        1.20310
C          4.07098        3.12620       -0.02684
H          2.31675        3.93215        0.87094
H          1.85329        5.03874       -1.14510
H          2.60554        3.75603       -2.15023
O          4.45507        2.45008        1.15157
H          4.37442        2.56780       -0.92980
H          4.54291        4.12313       -0.09243
H          5.39699        2.25415        1.09154
O          2.73413       -1.33434       -1.26899
S          3.46393       -2.75196       -0.82454
O          4.19508       -3.08512       -2.03951
O          4.28660       -2.43965        0.34631
O          2.32598       -3.65617       -0.52006
H         -2.61481       -3.90237        1.86356
H          1.72436       -0.26688        3.68663
H         -0.57653       -3.01331        0.77456
H          0.93373       -2.81657       -1.12400
