62
ZTX_139_solv.log	Energy: -1483136.4925782
C         -1.16187        1.72838        0.58631
N         -0.61203        1.98518        1.89530
C          0.14435        1.10294        2.54549
C         -0.36578        2.08643       -0.68748
H         -2.03161        2.38472        0.47785
N          0.78854        1.44933        3.64462
H          0.80534        2.41892        3.94647
H         -0.82039        2.87287        2.34355
N          0.28569       -0.13709        2.03623
C          0.34624       -1.41437        0.01054
C          1.79373       -1.06792        0.53115
C          1.55637       -0.85621        2.02894
O          0.20531       -2.79347        0.08999
O          0.07003       -0.93755       -1.25386
H          2.34724       -0.26456        2.50494
H          1.46999       -1.82420        2.54179
O         -1.03914        2.36820       -1.67313
C         -1.64210        0.28526        0.47645
C         -0.62812       -0.71663        1.05234
N         -1.50938       -1.67636        1.68004
C         -2.74228       -1.19904        1.83800
N         -2.86072        0.01794        1.25276
H         -1.82819        0.04588       -0.57852
N         -3.70342       -1.83143        2.46681
C         -4.11840        0.52979        0.80502
H         -4.63298       -1.43413        2.55041
H          0.76474       -1.32691       -1.82605
C          2.48891        0.14880       -0.12128
O         -4.49827       -0.20268       -0.35320
H         -4.87876        0.42538        1.59067
H         -4.01896        1.59566        0.56645
C         -5.48294        0.32845       -1.09810
O         -6.08358        1.34201       -0.81410
N         -5.65745       -0.41289       -2.22276
H         -5.32412       -1.37507       -2.23434
O         -6.82028       -0.20570       -2.91670
H         -6.57039        0.28920       -3.71094
H          3.51483        0.06034        0.25667
H          2.54225       -0.00226       -1.20710
N          0.97572        2.06463       -0.72607
C          2.06329        1.59996        0.13601
C          3.14530        2.61383       -0.29824
C          2.84952        2.79919       -1.78687
O          1.50775        2.33057       -1.98098
H          1.83037        1.80086        1.18255
C          4.58760        2.26134        0.00755
H          2.91872        3.55309        0.22784
H          2.91567        3.84901       -2.10426
H          3.50337        2.18253       -2.42116
O          5.37061        3.38687       -0.32963
H          4.68463        2.00612        1.07942
H          4.90152        1.37905       -0.57723
H          6.29811        3.13415       -0.26232
O          2.65297       -2.18864        0.42373
S          3.26664       -2.69743       -1.04071
O          3.35544       -4.13957       -0.83281
O          2.28195       -2.28218       -2.06425
O          4.55694       -2.01295       -1.16790
H         -3.52028       -2.73106        2.90069
H          1.24111        0.74962        4.22384
H         -1.16563       -2.51859        2.13392
H         -0.64233       -3.02726       -0.31448
