62
ZTX_361_solv.log	Energy: -1483139.4944078
C          1.58388        0.83507        0.80057
N          1.77309        1.18344       -0.58556
C          1.14952        0.53604       -1.56833
C          0.46913        1.50029        1.63326
H          2.48225        1.18494        1.31965
N          1.23602        0.95796       -2.81622
H          1.68799        1.84258       -3.02695
H          2.54718        1.80273       -0.81552
N          0.37812       -0.52353       -1.25630
C         -0.96567       -1.51616        0.46582
C         -1.84360       -0.78160       -0.62634
C         -0.92365       -0.78057       -1.85140
O         -1.19764       -2.87274        0.50069
O         -1.18660       -0.91663        1.69863
H         -1.19260       -0.00861       -2.58200
H         -0.95052       -1.76458       -2.34025
O          0.68291        1.57735        2.83857
C          1.50714       -0.67844        0.96562
C          0.52772       -1.31651       -0.03440
N          1.19297       -2.56604       -0.32358
C          2.49094       -2.50305       -0.02511
N          2.76429       -1.37270        0.65802
H          1.20926       -0.90947        1.99683
N          3.37072       -3.42500       -0.34330
C          4.01454       -1.14002        1.33815
H          4.35069       -3.32813       -0.09958
H         -0.87518       -1.51630        2.39166
C         -2.32983        0.63077       -0.25115
O          5.04135       -0.79283        0.43056
H          3.86753       -0.36090        2.09485
H          4.36160       -2.05585        1.83363
C          5.19093        0.50750        0.09825
O          4.57834        1.42614        0.60066
N          6.15849        0.62462       -0.83745
H          6.44135       -0.18699       -1.38309
O          6.26933        1.82861       -1.47425
H          7.04975        2.26250       -1.09733
H         -3.06047        0.85877       -1.03710
H         -2.88771        0.58084        0.69166
N         -0.66020        1.97496        1.08081
C         -1.36960        1.83025       -0.19250
C         -2.11756        3.18163       -0.18373
C         -2.44198        3.37029        1.29884
O         -1.56070        2.48841        2.00707
H         -0.66125        1.85412       -1.02262
C         -3.31301        3.32104       -1.10516
H         -1.38319        3.94334       -0.48517
H         -2.27611        4.40155        1.64040
H         -3.47044        3.06503        1.54221
O         -3.72357        4.67113       -1.05078
H         -3.02273        3.02668       -2.13110
H         -4.12972        2.65190       -0.78251
H         -4.54946        4.75027       -1.54093
O         -2.95506       -1.57268       -1.03367
S         -4.30471       -1.90893       -0.12470
O         -4.99973       -0.64480        0.12567
O         -4.99489       -2.82879       -1.02192
O         -3.77097       -2.53755        1.10652
H          3.08018       -4.23941       -0.87532
H          0.88285        0.39246       -3.58120
H          0.78215       -3.28147       -0.91577
H         -2.13827       -2.98324        0.76932
