62
ZTX_15_solv.log	Energy: -1483140.0085953
C          0.94993       -1.98373        0.12444
N          0.51112       -2.32616        1.45502
C         -0.08330       -1.44841        2.26201
C         -0.00755       -2.11957       -1.07957
H          1.72123       -2.71120       -0.14910
N         -0.64473       -1.84244        3.39012
H         -0.72660       -2.83160        3.60581
H          0.66859       -3.27189        1.79140
N         -0.14913       -0.15876        1.88155
C         -0.26278        1.33282        0.01247
C         -1.67946        1.08643        0.66260
C         -1.31359        0.69249        2.09681
O          0.04329        2.67551        0.18984
O         -0.17601        0.95490       -1.31108
H         -2.11855        0.15002        2.60631
H         -1.05196        1.58528        2.68214
O          0.52639       -2.36409       -2.15613
C          1.57278       -0.59235        0.10288
C          0.72588        0.43687        0.87296
N          1.75228        1.23931        1.49432
C          2.94795        0.65341        1.45731
N          2.87286       -0.51577        0.78232
H          1.68534       -0.26560       -0.93911
N          4.03594        1.14050        2.00934
C          3.99794       -1.31744        0.40527
H          4.95034        0.82163        1.67017
H         -0.87722        1.46858       -1.76502
C         -2.57094        0.01912       -0.01375
O          4.58082       -0.90390       -0.81990
H          4.74120       -1.31256        1.21190
H          3.66474       -2.34708        0.24516
C          5.66682       -0.10874       -0.76309
O          6.13188        0.35441        0.26227
N          6.18001        0.05670       -1.99825
H          5.62739       -0.18387       -2.81890
O          7.10428        1.04636       -2.17324
H          7.96534        0.60451       -2.22624
H         -3.53284        0.16459        0.49293
H         -2.72790        0.28932       -1.06597
N         -1.33512       -1.95379       -0.96655
C         -2.27725       -1.48616        0.05091
C         -3.49909       -2.33934       -0.36080
C         -3.36922       -2.39568       -1.88309
O         -2.01539       -2.02344       -2.17526
H         -1.96520       -1.81980        1.04133
C         -4.86942       -1.88712        0.12193
H         -3.32014       -3.34626        0.04779
H         -3.56521       -3.39835       -2.28783
H         -4.02064       -1.66498       -2.38467
O         -5.87150       -2.79464       -0.28290
H         -4.85310       -1.76034        1.21985
H         -5.13688       -0.91703       -0.32214
H         -5.67938       -3.64934        0.12226
O         -2.41228        2.29436        0.75606
S         -3.11713        3.00267       -0.57905
O         -4.47344        2.44790       -0.63309
O         -3.04838        4.41756       -0.22576
O         -2.28096        2.61451       -1.73657
H          3.98165        2.03912        2.47981
H         -0.97688       -1.16518        4.06884
H          1.56369        2.13129        1.94180
H          0.85262        2.85968       -0.30852
