62
ZTX_367_solv.log	Energy: -1483135.5206351
C         -1.37963        1.46443        0.97533
N         -0.63621        1.37589        2.20876
C          0.32707        0.47509        2.39348
C         -0.85149        2.33769       -0.18569
H         -2.32109        1.97261        1.20884
N          1.11401        0.53464        3.45222
H          1.06175        1.32857        4.08345
H         -0.87621        2.00208        2.97210
N          0.52243       -0.46335        1.44802
C          0.33424       -0.96812       -0.88376
C          1.82221       -0.62837       -0.45484
C          1.83685       -0.95433        1.05107
O          0.22221       -2.22879       -1.43737
O         -0.20894       -0.05341       -1.76547
H          2.63569       -0.42766        1.58676
H          1.92061       -2.02804        1.25599
O         -1.70282        2.82266       -0.92227
C         -1.71102        0.07000        0.45274
C         -0.48574       -0.85851        0.46727
N         -1.08977       -2.11756        0.83137
C         -2.29814       -1.95314        1.36506
N         -2.67497       -0.65599        1.29431
H         -2.09666        0.14984       -0.57090
N         -3.01491       -2.92733        1.87644
C         -4.03369       -0.23034        1.48284
H         -3.96036       -2.77747        2.21145
H          0.29263       -0.08550       -2.59223
C          2.26003        0.82704       -0.71829
O         -4.88654       -0.65885        0.43661
H         -4.43379       -0.67223        2.40211
H         -4.05775        0.86055        1.57943
C         -5.01756        0.15758       -0.63277
O         -4.43884        1.21332       -0.76706
N         -5.92366       -0.36718       -1.49050
H         -6.15525       -1.35701       -1.43169
O         -5.96596        0.16480       -2.75011
H         -6.77051        0.70335       -2.78534
H          3.34295        0.78095       -0.54683
H          2.12663        1.03923       -1.78844
N          0.46031        2.55175       -0.38377
C          1.72650        2.01012        0.10382
C          2.58240        3.28920       -0.05269
C          2.04992        3.86292       -1.36075
O          0.73685        3.30686       -1.52061
H          1.66852        1.79626        1.17115
C          4.09414        3.14344        0.00654
H          2.28225        3.95186        0.77288
H          1.97811        4.95931       -1.34299
H          2.64879        3.54997       -2.22965
O          4.53809        2.66475        1.25817
H          4.46327        2.51608       -0.82330
H          4.53855        4.14047       -0.13154
H          4.35294        1.71954        1.31474
O          2.71767       -1.37052       -1.27303
S          3.44252       -2.78686       -0.81408
O          2.30129       -3.67989       -0.48977
O          4.16335       -3.14063       -2.02921
O          4.27425       -2.46288        0.34710
H         -2.63150       -3.86686        1.91341
H          1.74913       -0.22531        3.67306
H         -0.59215       -3.00319        0.80858
H          0.91105       -2.84121       -1.09589
