62
ZTX_409_solv.log	Energy: -1483136.9374071
C         -1.47350        1.55256        1.11169
N         -0.93015        1.55893        2.44886
C         -0.01326        0.68331        2.85893
C         -0.73343        2.35313        0.01465
H         -2.43061        2.08091        1.16208
N          0.64607        0.87781        3.98617
H          0.54310        1.75092        4.49454
H         -1.22395        2.29402        3.08591
N          0.26001       -0.37610        2.07641
C          0.34537       -1.40373       -0.09073
C          1.79096       -1.01592        0.44006
C          1.57548       -0.98745        1.95624
O          0.19492       -2.76920       -0.13790
O          0.03889       -0.89692       -1.34752
H          2.33880       -0.39527        2.47525
H          1.57969       -2.01205        2.35388
O         -1.31190        3.26065       -0.53980
C         -1.73736        0.12274        0.62926
C         -0.64628       -0.88855        1.05763
N         -1.44476       -1.97645        1.57519
C         -2.74279       -1.69697        1.61757
N         -2.97034       -0.43218        1.20154
H         -1.81858        0.11428       -0.46566
N         -3.66418       -2.54231        2.01939
C         -4.26925        0.05438        0.83202
H         -4.64919       -2.30126        2.01098
H          0.19522        0.06045       -1.37432
C          2.37619        0.30603       -0.08819
O         -4.68896       -0.42429       -0.43342
H         -5.01206       -0.29364        1.55741
H         -4.26189        1.14946        0.83976
C         -4.42054        0.35182       -1.50833
O         -3.76478        1.37065       -1.47377
N         -5.03098       -0.16136       -2.60038
H         -5.34717       -1.12912       -2.59532
O         -4.63222        0.31496       -3.81868
H         -5.33233        0.91739       -4.11154
H          3.40166        0.32943        0.30304
H          2.45948        0.25447       -1.18207
N          0.45469        1.82686       -0.47269
C          1.69563        1.61752        0.29634
C          2.48405        2.88480       -0.09806
C          2.02422        3.14595       -1.53015
O          0.82425        2.37250       -1.69910
H          1.49199        1.68669        1.36695
C          3.98947        2.81569        0.06610
H          2.11518        3.69563        0.54822
H          1.80042        4.20503       -1.71782
H          2.74736        2.78454       -2.27586
O          4.50144        4.10029       -0.21872
H          4.23360        2.50284        1.09823
H          4.41336        2.06300       -0.62175
H          5.46340        4.04214       -0.22716
O          2.73612       -2.06090        0.24266
S          3.32454       -2.60190       -1.21480
O          4.25075       -3.62823       -0.75076
O          2.13136       -3.12852       -1.91810
O          3.94425       -1.46597       -1.89983
H         -3.39563       -3.46875        2.33670
H          1.21800        0.14223        4.38813
H         -1.05827       -2.90259        1.72987
H          0.83050       -3.09878       -0.81464
