62
ZTX_171_solv.log	Energy: -1483138.8164026
C          1.11806       -1.94281        0.21140
N          0.69957       -2.27757        1.55111
C          0.04002       -1.42337        2.33217
C          0.17868       -2.19132       -0.99019
H          1.94212       -2.61962       -0.03712
N         -0.50334       -1.82736        3.46582
H         -0.51839       -2.81401        3.70653
H          0.91557       -3.20257        1.91195
N         -0.10978       -0.14905        1.92238
C         -0.30861        1.29209        0.02065
C         -1.71385        0.94987        0.65088
C         -1.34197        0.61377        2.09802
O         -0.10614        2.65574        0.19515
O         -0.17191        0.91511       -1.29879
H         -2.11081        0.01860        2.60462
H         -1.16272        1.53539        2.66916
O          0.73304       -2.43898       -2.05595
C          1.64277       -0.51210        0.15313
C          0.73008        0.47798        0.90189
N          1.70247        1.35570        1.50821
C          2.93296        0.84779        1.48372
N          2.93642       -0.33421        0.82704
H          1.73281       -0.20331       -0.89652
N          3.98496        1.41330        2.03133
C          4.12062       -1.03824        0.43714
H          4.92157        1.14519        1.71029
H         -0.90319        1.37252       -1.76613
C         -2.51198       -0.18823       -0.02588
O          4.65707       -0.56393       -0.78870
H          4.86749       -0.97618        1.23772
H          3.87554       -2.09097        0.26969
C          5.67735        0.30473       -0.72732
O          6.15380        0.73881        0.31025
N          6.16310        0.61984       -1.94442
H          6.78936        1.41940       -2.01357
O          5.45126        0.32565       -3.07377
H          5.87731       -0.45157       -3.46541
H         -3.51160       -0.08888        0.41206
H         -2.62830        0.03441       -1.09424
N         -1.15710       -2.12427       -0.88130
C         -2.12933       -1.66692        0.11266
C         -3.28144       -2.63956       -0.24206
C         -3.15971       -2.75583       -1.76102
O         -1.83391       -2.30913       -2.08046
H         -1.79722       -1.93177        1.11688
C         -4.67477       -2.32771        0.27854
H         -2.99498       -3.60255        0.20474
H         -3.29041       -3.78903       -2.11321
H         -3.85920       -2.09405       -2.28770
O         -5.28242       -1.30130       -0.47495
H         -5.27424       -3.25400        0.22599
H         -4.59682       -2.05247        1.34576
H         -6.08496       -1.02690       -0.01752
O         -2.53314        2.10408        0.71459
S         -3.25229        2.75801       -0.63886
O         -4.57948        2.13927       -0.69941
O         -3.25418        4.18052       -0.30833
O         -2.38566        2.39391       -1.78213
H          3.87057        2.31368        2.48723
H         -0.88185       -1.15707        4.12677
H          1.45395        2.23267        1.95632
H          0.69081        2.90137       -0.29605
