62
ZTX_436_solv.log	Energy: -1483135.5249523
C         -1.57464        1.48354        0.76999
N         -1.09642        1.62244        2.12296
C         -0.29847        0.72425        2.69653
C         -0.76331        2.04601       -0.41808
H         -2.49233        2.07741        0.69640
N          0.27200        0.97562        3.86024
H          0.20081        1.89791        4.27944
H         -1.39418        2.42886        2.66497
N         -0.03651       -0.42915        2.04913
C          0.22671       -1.38855       -0.14053
C          1.61556       -1.02476        0.51656
C          1.28828       -1.03216        2.01306
O          0.07300       -2.74467       -0.32534
O          0.08788       -0.67945       -1.32506
H          2.00934       -0.45577        2.60388
H          1.26227       -2.06604        2.38357
O         -1.42212        2.38168       -1.39752
C         -1.91947        0.03004        0.46602
C         -0.84916       -0.95388        0.95268
N         -1.66738       -2.05742        1.39301
C         -2.95310       -1.73106        1.49456
N         -3.15235       -0.44569        1.10497
H         -2.02786       -0.08216       -0.61998
N         -3.88128       -2.55139        1.92864
C         -4.40825        0.04315        0.58631
H         -4.85312       -2.27170        2.00348
H         -0.62690       -1.07444       -1.84632
C          2.25005        0.29933        0.05094
O         -4.44245       -0.18450       -0.80939
H         -5.24816       -0.48206        1.05042
H         -4.50889        1.11423        0.79760
C         -4.36923        0.88781       -1.62517
O         -4.70567        2.01084       -1.31593
N         -3.94010        0.54452       -2.86774
H         -3.65307        1.32072       -3.46151
O         -3.16475       -0.57911       -3.01667
H         -3.72908       -1.24189       -3.44128
H          3.25859        0.25339        0.48012
H          2.36991        0.27219       -1.03882
N          0.57556        2.13062       -0.40246
C          1.67486        1.66874        0.44770
C          2.66830        2.82091        0.17360
C          2.40714        3.13813       -1.29888
O          1.12328        2.57343       -1.59943
H          1.38484        1.72421        1.49811
C          4.13567        2.58238        0.49796
H          2.32695        3.67096        0.78497
H          2.38483        4.21762       -1.50267
H          3.13784        2.65522       -1.96460
O          4.90567        3.73534        0.23393
H          4.23557        2.25695        1.54944
H          4.54888        1.78632       -0.13852
H          4.59613        4.44060        0.81561
O          2.56616       -2.07528        0.37218
S          3.30458       -2.54685       -1.03999
O          4.10880       -1.42223       -1.52173
O          4.06690       -3.69337       -0.55864
O          2.18139       -2.89296       -1.94267
H         -3.62767       -3.49310        2.21216
H          0.76068        0.24536        4.36803
H         -1.28213       -2.95770        1.66248
H          0.76849       -3.01523       -0.96796
