62
ZTX_468_solv.log	Energy: -1483135.1118879
C         -1.49768        2.00152        0.49556
N         -1.00075        2.37056        1.79850
C         -0.21682        1.57497        2.52215
C         -0.68069        2.30778       -0.77867
H         -2.39746        2.60151        0.32221
N          0.40994        2.03286        3.59005
H          0.38785        3.02354        3.81329
H         -1.22756        3.29255        2.16044
N         -0.03125        0.30434        2.11487
C          0.04992       -1.24077        0.28100
C          1.48933       -0.79048        0.73837
C          1.24933       -0.38545        2.19460
O         -0.19616       -2.56548        0.58412
O         -0.10866       -0.97174       -1.06541
H          2.03419        0.27161        2.58738
H          1.18139       -1.28177        2.82648
O         -1.34064        2.56654       -1.78151
C         -1.89938        0.53125        0.44707
C         -0.93595       -0.39252        1.21032
N         -1.86026       -1.22821        1.94129
C         -3.12641       -0.86737        1.78434
N         -3.22222        0.25295        1.01504
H         -1.89309        0.22419       -0.60384
N         -4.14478       -1.51066        2.30562
C         -4.34592        0.43192        0.12790
H         -5.09783       -1.18312        2.18905
H         -0.89874       -1.44058       -1.40328
C          2.14642        0.33023       -0.09189
O         -4.25291       -0.53471       -0.90572
H         -5.28943        0.28669        0.66319
H         -4.32808        1.44580       -0.28895
C         -3.94367       -0.12013       -2.14823
O         -4.27375        0.94476       -2.62010
N         -3.27137       -1.08078       -2.84471
H         -2.83904       -0.76999       -3.71348
O         -2.49800       -1.97056       -2.13978
H         -2.91802       -2.84053       -2.21284
H          3.20653        0.27181        0.17842
H          2.09189        0.07217       -1.15575
N          0.65733        2.22424       -0.81246
C          1.73602        1.80025        0.08216
C          2.81505        2.80871       -0.38275
C          2.55446        2.89676       -1.88429
O          1.20640        2.44037       -2.07045
H          1.49403        2.05924        1.11330
C          4.25984        2.55989        0.01711
H          2.53158        3.76712        0.07609
H          2.64467        3.92316       -2.26728
H          3.20818        2.22799       -2.45930
O          4.84309        1.54906       -0.77590
H          4.81255        3.50896       -0.09884
H          4.28721        2.29729        1.09027
H          5.72711        1.37493       -0.43403
O          2.38639       -1.89547        0.82594
S          2.95031       -2.81227       -0.43882
O          3.57028       -1.90982       -1.41032
O          3.87217       -3.69060        0.27315
O          1.74543       -3.49733       -0.96481
H         -3.98317       -2.34036        2.86846
H          0.87901        1.39780        4.22761
H         -1.56302       -2.05230        2.45541
H          0.43544       -3.09779        0.04750
