62
ZTX_486_solv.log	Energy: -1483139.2988319
C         -1.58206        0.83996       -0.79814
N         -1.77285        1.18365        0.58897
C         -1.15233        0.53127        1.57042
C         -0.46533        1.50637       -1.62708
H         -2.47937        1.19261       -1.31715
N         -1.24135        0.94777        2.81998
H         -1.69343        1.83162        3.03365
H         -2.54790        1.80138        0.81992
N         -0.38156       -0.52786        1.25575
C          0.96523       -1.51441       -0.46763
C          1.84120       -0.78510        0.62947
C          0.91857       -0.78888        1.85255
O          1.19611       -2.87107       -0.50719
O          1.18943       -0.91055       -1.69770
H          1.18662       -0.02058        2.58727
H          0.94341       -1.77521        2.33679
O         -0.67783        1.58757       -2.83244
C         -1.50632       -0.67303       -0.96889
C         -0.52903       -1.31562        0.03021
N         -1.19538       -2.56601        0.31322
C         -2.49282       -2.50096        0.01302
N         -2.76439       -1.36772       -0.66604
H         -1.20685       -0.90031       -2.00047
N         -3.37388       -3.42350        0.32599
C         -4.01350       -1.13195       -1.34722
H         -4.35337       -3.32440        0.08128
H          0.87933       -1.50769       -2.39351
C          2.32948        0.62850        0.26182
O         -5.04195       -0.78978       -0.43958
H         -3.86540       -0.34886       -2.09958
H         -4.35961       -2.04526       -1.84801
C         -5.19081        0.50845       -0.09895
O         -4.57655        1.42976       -0.59437
N         -6.15970        0.62035        0.83606
H         -6.44382       -0.19449        1.37621
O         -6.27055        1.82034        1.48034
H         -7.05045        2.25696        1.10551
H          3.05595        0.85303        1.05256
H          2.89237        0.58122       -0.67817
N          0.66458        1.97685       -1.07232
C          1.37156        1.82972        0.20230
C          2.12491        3.17904        0.19432
C          2.45550        3.36262       -1.28678
O          1.56679        2.49034       -1.99734
H          0.66163        1.85440        1.03119
C          3.32654        3.32459        1.11602
H          1.38685        3.94151        0.48897
H          2.30241        4.39517       -1.63028
H          3.48170        3.04640       -1.52629
O          3.87736        4.62111        1.02724
H          3.03201        3.07625        2.15201
H          4.12793        2.63132        0.82174
H          3.20407        5.25120        1.31210
O          2.95137       -1.57852        1.03584
S          4.30262       -1.91261        0.12836
O          4.99944       -0.64834       -0.11606
O          4.98999       -2.83649        1.02362
O          3.77079       -2.53627       -1.10622
H         -3.08504       -4.24036        0.85517
H         -0.89063        0.37840        3.58322
H         -0.78587       -3.28403        0.90319
H          2.13728       -2.98137       -0.77407
