62
ZTX_497_solv.log	Energy: -1483136.2054675
C          1.10483       -2.18409        0.51410
N          0.58336       -2.42599        1.83756
C         -0.12893       -1.51956        2.50649
C          0.21606       -2.50894       -0.70789
H          1.93573       -2.88200        0.37256
N         -0.80476       -1.85946        3.58838
H         -0.87543       -2.83465        3.86319
H          0.72506       -3.34124        2.25526
N         -0.18794       -0.26445        2.02758
C         -0.11241        1.25929        0.17375
C         -1.59448        1.03291        0.70112
C         -1.35061        0.60093        2.14961
O          0.30339        2.54285        0.43737
O          0.06184        1.02601       -1.18479
H         -2.20512        0.06104        2.57458
H         -1.13211        1.48042        2.77161
O          0.63341       -3.28844       -1.53707
C          1.64926       -0.75758        0.38498
C          0.78210        0.30508        1.09928
N          1.78546        1.06389        1.80635
C          2.99684        0.51897        1.74956
N          2.96707       -0.61331        1.01364
H          1.73820       -0.49481       -0.67926
N          4.04207        1.01055        2.37496
C          4.10976       -1.27558        0.43890
H          4.97334        0.64237        2.21824
H         -0.29774        0.15963       -1.43067
C         -2.44771        0.01033       -0.07030
O          4.22002       -1.01906       -0.94615
H          5.02130       -0.98456        0.97296
H          3.99133       -2.36115        0.51622
C          4.66083        0.20501       -1.31366
O          4.99701        1.07132       -0.53687
N          4.70278        0.28194       -2.66360
H          4.16598       -0.37707       -3.22423
O          4.85746        1.52490       -3.21208
H          5.77503        1.56906       -3.52008
H         -3.44278        0.08214        0.38802
H         -2.55871        0.34291       -1.11104
N         -0.87801       -1.69720       -0.94750
C         -2.03148       -1.45916       -0.06157
C         -3.06534       -2.41399       -0.69709
C         -2.70830       -2.36556       -2.17997
O         -1.37713       -1.82530       -2.24092
H         -1.81990       -1.82999        0.94305
C         -4.53177       -2.12803       -0.40862
H         -2.83563       -3.41867       -0.30780
H         -2.71598       -3.35724       -2.65239
H         -3.35960       -1.68342       -2.74594
O         -5.36664       -3.08437       -1.02480
H         -4.69451       -2.08875        0.68366
H         -4.82167       -1.15178       -0.82440
H         -5.16075       -3.94726       -0.64449
O         -2.31731        2.25209        0.82051
S         -2.82530        3.22830       -0.42514
O         -3.68024        2.42703       -1.30318
O         -3.51311        4.26887        0.33055
O         -1.57065        3.67284       -1.07534
H          3.95219        1.88579        2.88144
H         -1.21148       -1.15310        4.19263
H          1.58017        1.94978        2.25719
H         -0.26856        3.13787       -0.09980
