62
ZTX_57_solv.log	Energy: -1483138.7017943
C          0.90461       -1.94447        0.66807
N          0.34920       -1.74171        1.98286
C         -0.32634       -0.64022        2.30582
C          0.05314       -2.57835       -0.45294
H          1.69686       -2.69288        0.77359
N         -0.97957       -0.56018        3.45075
H         -1.06482       -1.37755        4.04780
H          0.50032       -2.45285        2.69268
N         -0.37575        0.36599        1.41427
C         -0.33532        0.94167       -0.90724
C         -1.79860        0.96888       -0.30005
C         -1.54564        1.20788        1.20096
O          0.03385        2.16673       -1.43096
O         -0.15398       -0.02228       -1.87998
H         -2.38723        0.88710        1.82500
H         -1.30962        2.25381        1.43141
O          0.67807       -3.20859       -1.29934
C          1.52290       -0.65388        0.13807
C          0.58173        0.54885        0.32520
N          1.52222        1.59623        0.64120
C          2.71354        1.11602        0.99027
N          2.73001       -0.23127        0.86078
H          1.75805       -0.77744       -0.92690
N          3.72084        1.84875        1.40700
C          3.90488       -1.04432        0.95881
H          4.67237        1.46699        1.37661
H         -0.73244        0.18030       -2.62922
C         -2.63589       -0.30499       -0.53456
O          4.65633       -1.07616       -0.24462
H          4.52552       -0.69737        1.79365
H          3.60450       -2.07893        1.15005
C          5.72978       -0.26679       -0.33933
O          6.07586        0.52568        0.51788
N          6.33142       -0.44051       -1.53253
H          6.13855       -1.27145       -2.08853
O          7.56386        0.12008       -1.70833
H          7.42697        0.90452       -2.26125
H         -3.62934       -0.00297       -0.17898
H         -2.72475       -0.46031       -1.61952
N         -1.27979       -2.42875       -0.52371
C         -2.32390       -1.64833        0.14008
C         -3.48517       -2.65872        0.00248
C         -3.20825       -3.29949       -1.35837
O         -1.84166       -2.98973       -1.66372
H         -2.10800       -1.54798        1.20455
C         -4.89304       -2.12084        0.16403
H         -3.33273       -3.41425        0.78736
H         -3.34117       -4.39033       -1.34699
H         -3.82427       -2.86415       -2.15892
O         -5.76645       -3.23026        0.16350
H         -4.96235       -1.55125        1.10966
H         -5.14075       -1.43134       -0.66165
H         -6.66965       -2.89466        0.14367
O         -2.55931        1.95840       -0.98186
S         -2.84683        3.47969       -0.39453
O         -3.59740        4.06966       -1.49442
O         -3.58688        3.30023        0.85648
O         -1.48779        4.04571       -0.20128
H          3.60125        2.85556        1.46576
H         -1.38720        0.31602        3.75981
H          1.28122        2.58302        0.63940
H         -0.43861        2.91064       -0.99565
