62
ZTX_305_solv.log	Energy: -1483140.9535367
C          1.03429       -1.98964        0.13427
N          0.60777       -2.35727        1.46248
C         -0.03407       -1.51562        2.27112
C          0.09535       -2.18657       -1.07666
H          1.84577       -2.67419       -0.13320
N         -0.58502       -1.94617        3.39135
H         -0.62261       -2.93993        3.59793
H          0.80481       -3.29775        1.79305
N         -0.15894       -0.22501        1.90348
C         -0.30844        1.29254        0.06611
C         -1.73345        0.93853        0.65418
C         -1.38545        0.54458        2.09316
O         -0.02898        2.63418        0.31649
O         -0.15748        0.99316       -1.27184
H         -2.16764       -0.06069        2.56674
H         -1.20485        1.44086        2.70297
O          0.64792       -2.42098       -2.14631
C          1.58663       -0.56950        0.12111
C          0.70377        0.41924        0.90958
N          1.69899        1.24250        1.55158
C          2.92187        0.72569        1.46855
N          2.88980       -0.44312        0.78893
H          1.67500       -0.22774       -0.91821
N          3.99891        1.26890        1.98915
C          4.04770       -1.18505        0.39142
H          4.91977        0.99771        1.62619
H         -0.86702        1.48558       -1.73218
C         -2.55027       -0.14581       -0.07643
O          4.59279       -0.73510       -0.83915
H          4.80091       -1.14559        1.18783
H          3.76743       -2.23009        0.22948
C          5.64860        0.10004       -0.79320
O          6.11380        0.57175        0.22845
N          6.13389        0.29600       -2.03517
H          5.57678        0.04183       -2.84867
O          7.01623        1.32234       -2.21631
H          7.89282        0.91465       -2.28614
H         -3.55839       -0.03460        0.33848
H         -2.63148        0.10834       -1.14097
N         -1.23894       -2.09002       -0.97099
C         -2.20223       -1.63590        0.03186
C         -3.37383       -2.57553       -0.34531
C         -3.25551       -2.65458       -1.86659
O         -1.91727       -2.23709       -2.17473
H         -1.87749       -1.92986        1.02999
C         -4.75948       -2.24965        0.18673
H         -3.10567       -3.55510        0.07609
H         -3.41456       -3.67380       -2.24648
H         -3.93647       -1.95961       -2.37461
O         -5.34623       -1.18963       -0.53613
H         -5.37823       -3.16127        0.10893
H         -4.67415       -2.00651        1.26123
H         -6.15188       -0.92298       -0.07945
O         -2.50407        2.13313        0.74301
S         -3.27848        2.81138       -0.59384
O         -4.59490        2.17895       -0.64190
O         -3.27306        4.21898       -0.20771
O         -2.40951        2.48642       -1.74329
H          3.91041        2.15834        2.47132
H         -0.95071       -1.29086        4.07433
H          1.49226        2.17771        1.88902
H         -0.84112        3.05720        0.63813
