62
ZTX_507_solv.log	Energy: -1483137.7187944
C         -1.57426        1.01786       -0.74780
N         -1.76618        1.29141        0.65651
C         -1.14651        0.59930        1.61330
C         -0.45793        1.72044       -1.54986
H         -2.46551        1.39790       -1.25796
N         -1.21467        0.98284        2.87443
H         -1.64529        1.86981        3.11781
H         -2.48906        1.95550        0.92262
N         -0.40227       -0.46725        1.26100
C          0.88694       -1.52612       -0.45018
C          1.80028       -0.81408        0.62273
C          0.89058       -0.79401        1.85417
O          1.13027       -2.88947       -0.34687
O          1.06006       -1.06487       -1.73937
H          1.19244       -0.04160        2.59242
H          0.87335       -1.78326        2.33274
O         -0.70006        1.91862       -2.73696
C         -1.50297       -0.48816       -0.99268
C         -0.59184       -1.21015        0.01503
N         -1.34789       -2.42367        0.26156
C         -2.63896       -2.26030       -0.05339
N         -2.79438       -1.14481       -0.78853
H         -1.15338       -0.67587       -2.01627
N         -3.60411       -3.08772        0.27705
C         -3.97364       -0.73829       -1.49531
H         -4.56843       -2.75057        0.22744
H          2.01244       -1.20318       -1.92824
C          2.31276        0.59773        0.26093
O         -4.63291        0.32399       -0.82955
H         -3.68232       -0.33371       -2.47086
H         -4.64524       -1.59187       -1.64546
C         -5.39228       -0.00061        0.22695
O         -5.70136       -1.14194        0.52637
N         -5.75271        1.07630        0.95361
H         -6.50880        0.97208        1.62728
O         -5.54976        2.34004        0.47238
H         -4.78487        2.69065        0.95410
H          3.09740        0.78637        1.00171
H          2.82219        0.55917       -0.71057
N          0.71454        2.05942       -0.99696
C          1.40519        1.83496        0.27259
C          2.18571        3.16764        0.33228
C          2.59114        3.35551       -1.12500
O          1.62279        2.62176       -1.88953
H          0.69285        1.84778        1.09871
C          3.28511        3.33872        1.37744
H          1.43303        3.93292        0.57614
H          2.57080        4.40834       -1.43853
H          3.57906        2.92500       -1.34832
O          4.44883        2.56343        1.19910
H          3.53760        4.41240        1.42327
H          2.87066        3.06496        2.35955
H          4.92122        2.88086        0.42079
O          2.90754       -1.62989        0.96297
S          4.20719       -1.83351       -0.05948
O          4.61207       -3.20077        0.25568
O          3.68474       -1.64728       -1.43170
O          5.16899       -0.80109        0.33813
H         -3.39193       -3.87797        0.87841
H         -0.86645        0.38632        3.61801
H         -1.03622       -3.11063        0.94303
H          0.60775       -3.33369       -1.02948
