62
ZTX_302_solv.log	Energy: -1483140.1432087
C         -1.64706        1.26036       -0.73258
N         -1.73546        1.18439        0.70524
C         -1.02100        0.29899        1.39868
C         -0.61565        2.19240       -1.40315
H         -2.58242        1.71645       -1.07326
N         -1.02744        0.31367        2.71907
H         -1.50696        1.05767        3.21744
H         -2.55593        1.60857        1.15570
N         -0.23646       -0.56753        0.72840
C          0.95616       -1.02045       -1.29138
C          1.91536       -0.58999       -0.10150
C          1.10057       -0.95689        1.15387
O          1.26594       -2.27341       -1.78457
O          0.94422       -0.12312       -2.34322
H          1.41114       -0.39188        2.04042
H          1.13325       -2.02811        1.38595
O         -0.92783        2.62595       -2.50689
C         -1.55446       -0.13944       -1.33862
C         -0.48477       -0.99663       -0.64601
N         -1.11610       -2.30079       -0.66096
C         -2.44601       -2.17818       -0.73143
N         -2.77136       -0.93017       -1.11893
H         -1.34756       -0.06316       -2.41391
N         -3.29568       -3.15340       -0.49737
C         -4.08660       -0.41424       -1.35793
H         -4.27852       -2.93250       -0.34641
H          1.83189       -0.08387       -2.72671
C          2.32879        0.89678       -0.08762
O         -4.51565        0.39375       -0.27304
H         -4.06207        0.25349       -2.22616
H         -4.79198       -1.23070       -1.55086
C         -4.91701       -0.24369        0.83722
O         -5.21752       -1.42019        0.88462
N         -5.00611        0.59253        1.90121
H         -5.11407        0.16601        2.81910
O         -4.30184        1.76852        1.90853
H         -4.92464        2.47331        1.67150
H          3.13905        0.92157        0.65036
H          2.79325        1.13848       -1.05421
N          0.54366        2.52391       -0.81000
C          1.35830        2.02210        0.29840
C          2.06406        3.34969        0.67052
C          2.25167        4.01928       -0.69195
O          1.35956        3.33920       -1.58585
H          0.72220        1.75824        1.14418
C          3.30537        3.29013        1.54487
H          1.31821        3.92324        1.23934
H          2.00153        5.08976       -0.66780
H          3.26653        3.88639       -1.08797
O          4.42950        2.85838        0.80927
H          3.47803        4.29943        1.95869
H          3.10091        2.62000        2.39976
H          5.17019        2.77597        1.42028
O          3.16456       -1.25225       -0.26507
S          3.60419       -2.62528        0.54615
O          2.54224       -3.60303        0.19700
O          4.90274       -2.90413       -0.05242
O          3.62208       -2.27121        1.96756
H         -2.94150       -4.03249       -0.13159
H         -0.60385       -0.44125        3.24868
H         -0.66413       -3.11852       -0.25974
H          1.66460       -2.84847       -1.09362
