62
ZTX_222_solv.log	Energy: -1483139.5241768
C         -1.59052        0.89247       -0.73444
N         -1.78261        1.19715        0.66282
C         -1.15263        0.53582        1.63303
C         -0.49751        1.60201       -1.55639
H         -2.49936        1.23822       -1.23779
N         -1.24132        0.93337        2.88874
H         -1.69842        1.81092        3.11718
H         -2.55662        1.81031        0.90823
N         -0.37501       -0.51340        1.30178
C          0.95913       -1.52578       -0.40630
C          1.84134       -0.76934        0.66235
C          0.93166       -0.77680        1.89450
O          1.26516       -2.87662       -0.30526
O          1.10766       -1.05785       -1.69592
H          1.20023       -0.00452        2.62504
H          0.95923       -1.76116        2.38268
O         -0.73213        1.73447       -2.75384
C         -1.48484       -0.61174       -0.94678
C         -0.53309       -1.27673        0.06363
N         -1.22125       -2.52387        0.32200
C         -2.50849       -2.45301       -0.02579
N         -2.74973       -1.31914       -0.70956
H         -1.13637       -0.81283       -1.96797
N         -3.40316       -3.37393        0.25044
C         -3.97090       -1.07094       -1.43486
H         -4.37456       -3.26527       -0.02128
H          2.06525       -1.14996       -1.88633
C          2.29955        0.65941        0.29003
O         -5.04361       -0.78618       -0.55944
H         -3.79979       -0.25167       -2.14256
H         -4.28023       -1.96557       -1.99030
C         -5.21585        0.48861       -0.14772
O         -4.58487        1.44002       -0.55746
N         -6.22870        0.54079        0.74494
H         -6.53346       -0.30552        1.22171
O         -6.37893        1.70032        1.45216
H         -7.13920        2.15775        1.06212
H          3.05745        0.88461        1.04890
H          2.83277        0.63248       -0.66878
N          0.64444        2.03626       -1.00257
C          1.34515        1.85972        0.26959
C          2.07297        3.22671        0.31137
C          2.40154        3.47245       -1.16135
O          1.53866        2.59911       -1.90403
H          0.63203        1.85756        1.09518
C          3.23626        3.39822        1.27382
H          1.30809        3.95248        0.62293
H          2.21449        4.51298       -1.46300
H          3.43381        3.19498       -1.41054
O          4.39893        2.76321        0.78851
H          3.41246        4.48066        1.40535
H          2.93877        2.99643        2.25937
H          5.07157        2.80434        1.47748
O          2.98061       -1.53637        1.01039
S          4.28643       -1.70059       -0.01134
O          5.21426       -0.63800        0.38744
O          4.73470       -3.05419        0.30458
O          3.75931       -1.53157       -1.38400
H         -3.13626       -4.19578        0.78346
H         -0.88350        0.35526        3.64213
H         -0.84754       -3.22860        0.95136
H          0.79704       -3.33656       -1.01645
