62
ZTX_388_solv.log	Energy: -1483135.4329594
C         -1.44481        1.24738        1.05493
N         -0.73267        1.09772        2.29997
C          0.23176        0.19420        2.46326
C         -0.90211        2.19464       -0.03787
H         -2.40161        1.72480        1.29134
N          0.97573        0.19298        3.55412
H          0.89482        0.94701        4.22951
H         -1.00828        1.67054        3.09267
N          0.47097       -0.68453        1.47033
C          0.37157       -1.01646       -0.90009
C          1.83642       -0.68143       -0.39803
C          1.80724       -1.11793        1.07972
O          0.30421       -2.23600       -1.54634
O         -0.16154       -0.04924       -1.73041
H          2.57826       -0.62285        1.68058
H          1.90412       -2.20308        1.20290
O         -1.74183        2.68953       -0.78086
C         -1.73622       -0.11745        0.43962
C         -0.49508       -1.02241        0.42610
N         -1.08795       -2.31487        0.67127
C         -2.31933       -2.21269        1.16584
N         -2.70962       -0.91622        1.20066
H         -2.09305        0.01953       -0.59003
N         -3.03966       -3.23867        1.55586
C         -4.08200       -0.51457        1.33590
H         -3.99726       -3.13147        1.87160
H          0.39054        0.02081       -2.52181
C          2.26314        0.79469       -0.54287
O         -4.80141       -0.69780        0.13109
H         -4.57267       -1.12567        2.10083
H         -4.12459        0.53387        1.64996
C         -4.98147        0.38469       -0.66217
O         -4.66999        1.51695       -0.36736
N         -5.52128       -0.00868       -1.83920
H         -5.97347       -0.91824       -1.90822
O         -6.05281        0.96688       -2.63730
H         -5.40344        1.11980       -3.33985
H          3.33446        0.75221       -0.30807
H          2.18812        1.07474       -1.60346
N          0.40819        2.46790       -0.16934
C          1.67555        1.92117        0.31966
C          2.51467        3.21758        0.25510
C          1.96355        3.90673       -0.99347
O          0.69879        3.28424       -1.25632
H          1.59081        1.64224        1.37075
C          4.02985        3.08359        0.27261
H          2.22675        3.80737        1.13943
H          1.81560        4.98630       -0.85067
H          2.59668        3.73849       -1.87712
O          4.64835        4.35221        0.27783
H          4.33774        2.47660        1.14347
H          4.38650        2.57190       -0.63306
H          4.38626        4.80695        1.08798
O          2.77242       -1.34795       -1.23642
S          3.51153       -2.78017       -0.85743
O          4.27936       -3.02995       -2.06973
O          4.29791       -2.52660        0.35185
O          2.38002       -3.71664       -0.63945
H         -2.64151       -4.17249        1.52785
H          1.61209       -0.57326        3.74887
H         -0.57547       -3.18856        0.59172
H          0.99386       -2.85951       -1.22619
