62
ZTX_259_solv.log	Energy: -1483139.8686733
C         -1.09172        1.81775        0.64105
N         -0.48856        1.64327        1.93896
C          0.25220        0.57918        2.24474
C         -0.31921        2.52558       -0.49701
H         -1.92913        2.51106        0.77405
N          0.93838        0.53792        3.37225
H          1.00034        1.36094        3.96422
H         -0.65263        2.34747        2.65312
N          0.33248       -0.43440        1.36086
C          0.29255       -0.96080       -0.96717
C          1.76333       -0.85313       -0.41749
C          1.57396       -1.14641        1.08026
O          0.02513       -2.25345       -1.37406
O          0.12180       -0.04623       -1.99527
H          2.39731       -0.76226        1.69136
H          1.46006       -2.22244        1.26464
O         -1.01191        3.10231       -1.32879
C         -1.64221        0.49192        0.12600
C         -0.63170       -0.65850        0.28227
N         -1.50495       -1.76167        0.59619
C         -2.71594       -1.35502        0.96835
N         -2.80478       -0.00639        0.87436
H         -1.91622        0.61115       -0.93095
N         -3.67813       -2.15004        1.37660
C         -4.02052        0.73667        1.01804
H         -4.64948       -1.81991        1.35855
H         -0.66576       -0.29276       -2.50139
C          2.49298        0.47520       -0.68670
O         -4.79413        0.76002       -0.17223
H         -4.60611        0.33006        1.85116
H         -3.77669        1.78004        1.23834
C         -5.84814       -0.07524       -0.25631
O         -6.11720       -0.93429        0.56387
N         -6.57503        0.21071       -1.35408
H         -6.18576        0.79673       -2.09007
O         -7.50904       -0.70248       -1.75154
H         -8.36852       -0.33930       -1.48906
H          3.52560        0.24480       -0.39904
H          2.48763        0.64924       -1.77107
N          1.02115        2.51267       -0.57319
C          2.12086        1.77183        0.04406
C          3.21030        2.86218       -0.06617
C          2.89532        3.49651       -1.41767
O          1.52636        3.16450       -1.69362
H          1.92630        1.61637        1.10529
C          4.64979        2.40773        0.10368
H          2.98854        3.59241        0.72789
H          3.00733        4.58962       -1.40926
H          3.50470        3.07271       -2.23002
O          4.84029        1.70042        1.31001
H          4.94508        1.73338       -0.71332
H          5.30972        3.29111        0.04345
H          4.63055        2.29544        2.04028
O          2.48606       -1.83958       -1.14166
S          3.67863       -2.79970       -0.44805
O          4.41470       -3.21129       -1.63899
O          4.40236       -1.90636        0.46594
O          2.93824       -3.87512        0.22227
H         -3.50319       -3.14999        1.40944
H          1.39891       -0.31578        3.67016
H         -1.21480       -2.73211        0.52791
H          0.87187       -2.61756       -1.68779
