62
ZTX_510_solv.log	Energy: -1483140.1975886
C         -1.52918        1.40874       -0.10258
N         -1.38043        1.11664        1.30290
C         -0.52806        0.20058        1.76429
C         -0.62044        2.47765       -0.75250
H         -2.52037        1.85737       -0.22420
N         -0.23944        0.13767        3.05078
H         -0.57814        0.85239        3.68765
H         -1.92658        1.65402        1.97076
N          0.07400       -0.62240        0.88733
C          0.89908       -1.06162       -1.30583
C          2.07008       -0.74129       -0.28981
C          1.43122       -1.12875        1.05313
O          0.98115       -2.38524       -1.67964
O          0.91570       -0.29394       -2.46416
H          1.92328       -0.65061        1.90667
H          1.43654       -2.21712        1.19920
O         -1.14298        3.42053       -1.30738
C         -1.48775        0.12268       -0.93667
C         -0.43577       -0.90380       -0.45003
N         -1.20613       -2.12701       -0.45470
C         -2.51024       -1.92100       -0.61556
N         -2.74847       -0.61491       -0.85786
H         -1.29532        0.37213       -1.99058
N         -3.43367       -2.85343       -0.57419
C         -3.96575       -0.08127       -1.40207
H         -4.41512       -2.56693       -0.48731
H          0.93275        0.65078       -2.24303
C          2.61062        0.69738       -0.29907
O         -4.77532        0.54804       -0.42453
H         -3.70914        0.70520       -2.12027
H         -4.52935       -0.86989       -1.91560
C         -5.66460       -0.21827        0.23460
O         -5.78791       -1.41974        0.08270
N         -6.42069        0.54804        1.04543
H         -6.13207        1.49766        1.27254
O         -7.18672       -0.08247        1.98293
H         -8.09557       -0.05922        1.64702
H          3.45731        0.67058        0.39772
H          3.02001        0.90093       -1.30003
N          0.71788        2.17415       -0.92086
C          1.69484        1.83976        0.12749
C          2.39629        3.20708        0.28838
C          2.37498        3.76543       -1.12940
O          1.36043        3.01797       -1.82344
H          1.18325        1.62822        1.06767
C          3.77298        3.17760        0.93107
H          1.73271        3.81724        0.92163
H          2.12092        4.83376       -1.16153
H          3.32255        3.59642       -1.66226
O          3.75802        2.53392        2.18657
H          4.48140        2.62494        0.29633
H          4.15106        4.21216        1.01040
H          3.17654        3.03345        2.77289
O          3.14369       -1.57037       -0.70692
S          4.20302       -2.30694        0.37391
O          3.49790       -3.52034        0.80239
O          5.35243       -2.53893       -0.49492
O          4.40610       -1.32018        1.44239
H         -3.16701       -3.80633       -0.34708
H          0.27060       -0.65248        3.43212
H         -0.78740       -3.03209       -0.26562
H          1.92771       -2.61230       -1.65996
