62
ZTX_198_solv.log	Energy: -1483137.4513562
C         -1.48794        1.21368        1.02768
N         -0.76134        1.02818        2.25916
C          0.19380        0.11003        2.39493
C         -0.95691        2.18805       -0.04808
H         -2.43632        1.69469        1.28919
N          0.95701        0.09081        3.47203
H          0.90384        0.84443        4.15068
H         -1.00746        1.60049        3.06199
N          0.40471       -0.76828        1.39351
C          0.28552       -1.03548       -0.97713
C          1.74201       -0.67592       -0.50295
C          1.73917       -1.16517        0.95469
O          0.25469       -2.30665       -1.51672
O         -0.14844       -0.07612       -1.87990
H          2.51427       -0.68641        1.56219
H          1.86396       -2.25453        1.00766
O         -1.80205        2.69673       -0.77533
C         -1.80343       -0.13387        0.39065
C         -0.57863       -1.06323        0.34874
N         -1.19545       -2.34888        0.57176
C         -2.41772       -2.23264        1.08444
N         -2.78045       -0.93058        1.14979
H         -2.17759        0.03261       -0.62859
N         -3.15851       -3.24883        1.46200
C         -4.13164       -0.50807        1.38834
H         -4.11653       -3.12485        1.77097
H         -0.90177       -0.43285       -2.37170
C          2.15878        0.79821       -0.64938
O         -4.97994       -0.75786        0.28253
H         -4.54804       -1.07209        2.23010
H         -4.13844        0.55625        1.64629
C         -5.14306        0.23784       -0.61804
O         -4.64992        1.33999       -0.52460
N         -5.90205       -0.20895       -1.64691
H         -6.48402       -1.03429       -1.51626
O         -6.42020        0.73568       -2.49041
H         -5.89735        0.68237       -3.30419
H          3.23922        0.75745       -0.47158
H          2.01004        1.09399       -1.69634
N          0.35002        2.47935       -0.16463
C          1.61425        1.89085        0.27841
C          2.47363        3.17715        0.27537
C          1.91327        3.94717       -0.91997
O          0.64052        3.35142       -1.20766
H          1.53699        1.56038        1.31402
C          3.97502        2.98547        0.24408
H          2.21703        3.71660        1.19923
H          1.77568        5.01606       -0.70367
H          2.53213        3.83346       -1.82193
O          4.34104        2.18997        1.35218
H          4.28317        2.51652       -0.70622
H          4.45870        3.97833        0.28345
H          5.24473        1.88329        1.21714
O          2.58975       -1.40463       -1.38029
S          4.03573       -2.10783       -0.89070
O          3.63531       -3.38738       -0.29452
O          4.72512       -2.21632       -2.17228
O          4.62245       -1.15783        0.06430
H         -2.78103       -4.19056        1.41990
H          1.59421       -0.68013        3.64371
H         -0.70678       -3.22752        0.43041
H          1.12875       -2.44882       -1.92140
