62
ZTX_192_solv.log	Energy: -1483142.3067797
C          1.41614        1.26482        0.52856
N          1.51885        1.49305       -0.89269
C          0.89932        0.73069       -1.79206
C          0.29809        1.93028        1.36037
H          2.30636        1.71589        0.97981
N          0.85661        1.08668       -3.06278
H          1.19502        1.99962       -3.35211
H          2.10723        2.25440       -1.21922
N          0.26651       -0.38411       -1.37598
C         -0.84513       -1.49608        0.41491
C         -1.87006       -0.85635       -0.60659
C         -1.03422       -0.80429       -1.88810
O         -0.92598       -2.88364        0.33250
O         -0.99622       -1.05841        1.71522
H         -1.42469       -0.08762       -2.62025
H         -0.98065       -1.79897       -2.35239
O          0.59259        2.20919        2.51875
C          1.44897       -0.22930        0.83871
C          0.57662       -1.06669       -0.11714
N          1.43080       -2.20716       -0.35297
C          2.69193       -1.98213        0.01311
N          2.78333       -0.80697        0.67146
H          1.11376       -0.38918        1.87175
N          3.69944       -2.79477       -0.20541
C          3.86946       -0.41627        1.52623
H          4.65260       -2.44079       -0.06924
H         -1.92336       -1.26065        1.95483
C         -2.47639        0.51382       -0.24159
O          4.72241        0.54159        0.92469
H          3.45133        0.07867        2.40988
H          4.44376       -1.29633        1.84198
C          5.74959        0.08056        0.18790
O          5.96742       -1.09637       -0.03445
N          6.52114        1.10698       -0.22340
H          6.16805        2.06122       -0.18695
O          7.44540        0.85255       -1.19593
H          8.30281        0.80281       -0.74655
H         -3.31899        0.61758       -0.93438
H         -2.91440        0.46633        0.76355
N         -0.93031        2.14785        0.86806
C         -1.66853        1.81441       -0.34832
C         -2.54722        3.08713       -0.42984
C         -2.84036        3.37787        1.04065
O         -1.82946        2.67934        1.78337
H         -1.00320        1.83994       -1.21163
C         -3.75832        3.07368       -1.34745
H         -1.88078        3.87319       -0.81350
H         -2.78578        4.45040        1.27508
H         -3.81212        2.97828        1.35847
O         -4.82340        2.34614       -0.77630
H         -4.05829        4.12083       -1.53013
H         -3.45604        2.64849       -2.32156
H         -5.51704        2.26069       -1.43981
O         -2.91803       -1.78971       -0.85145
S         -4.20824       -2.00542        0.21315
O         -5.21610       -1.02893       -0.19555
O         -4.53895       -3.39962       -0.06319
O         -3.63973       -1.76259        1.55482
H          3.54780       -3.63879       -0.74861
H          0.51180        0.44608       -3.77027
H          1.12850       -3.00751       -0.89928
H         -1.72535       -3.10799       -0.16979
