62
ZTX_157_solv.log	Energy: -1483135.6902634
C         -1.39264        1.33039        1.02299
N         -0.69215        1.16412        2.27289
C          0.23709        0.22667        2.44963
C         -0.81565        2.25311       -0.07370
H         -2.33332        1.84186        1.25257
N          0.97476        0.20748        3.54470
H          0.91636        0.96849        4.21449
H         -0.95146        1.75163        3.06032
N          0.45020       -0.66917        1.46628
C          0.35288       -1.01829       -0.90083
C          1.82432       -0.72243       -0.39338
C          1.77306       -1.15127        1.08578
O          0.25346       -2.24465       -1.53030
O         -0.14301       -0.04651       -1.74869
H          2.55639       -0.67922        1.68929
H          1.83325       -2.23851        1.21413
O         -1.63579        2.77271       -0.82165
C         -1.73002       -0.02880        0.41848
C         -0.52268       -0.98043        0.41943
N         -1.16505       -2.24729        0.67598
C         -2.38474       -2.08990        1.18638
N         -2.72968       -0.78174        1.19233
H         -2.08329        0.11102       -0.61131
N         -3.13464       -3.07908        1.61441
C         -4.07909       -0.32853        1.37929
H         -4.08648       -2.93132        1.93142
H          0.41951       -0.00536       -2.53501
C          2.30134        0.73823       -0.54479
O         -4.89159       -0.58510        0.24876
H         -4.53451       -0.86410        2.21949
H         -4.07195        0.74133        1.61326
C         -5.03778        0.41013       -0.65546
O         -4.51460        1.49925       -0.57344
N         -5.89421        0.01080       -1.62503
H         -6.07056       -0.98303       -1.75935
O         -5.93806        0.76637       -2.76469
H         -6.76532        1.26870       -2.72048
H          3.36870        0.66062       -0.30043
H          2.24473        1.00991       -1.60876
N          0.50330        2.47684       -0.20549
C          1.74721        1.89519        0.29931
C          2.63100        3.16049        0.22364
C          2.11442        3.84911       -1.03938
O          0.82569        3.27542       -1.29694
H          1.64428        1.63565        1.35353
C          4.14016        2.97400        0.25724
H          2.35617        3.77294        1.09673
H          2.01060        4.93622       -0.91696
H          2.74439        3.63866       -1.91636
O          4.80259        4.22028        0.25471
H          4.41851        2.36647        1.13766
H          4.48690        2.43970       -0.63919
H          4.54761        4.69418        1.05625
O          2.74182       -1.42183       -1.22566
S          3.44859       -2.86415       -0.82783
O          4.21780       -3.14310       -2.03291
O          4.23348       -2.61446        0.38334
O          2.29563       -3.77334       -0.60671
H         -2.77006       -4.02679        1.60302
H          1.57805       -0.58192        3.75149
H         -0.68338       -3.13990        0.61498
H          0.92710       -2.88096       -1.20234
