62
ZTX_455_solv.log	Energy: -1483142.2632933
C          1.07099       -1.88068        0.31592
N          0.63130       -2.13455        1.66602
C          0.01074       -1.21514        2.40278
C          0.13565       -2.15097       -0.88378
H          1.87527       -2.59402        0.10881
N         -0.53091       -1.53544        3.56337
H         -0.58100       -2.50650        3.85678
H          0.83040       -3.04033        2.08111
N         -0.10347        0.03951        1.92477
C         -0.28155        1.32424       -0.08769
C         -1.69775        1.08017        0.58994
C         -1.31905        0.83289        2.05234
O          0.05583        2.67004       -0.06776
O         -0.18208        0.77800       -1.35641
H         -2.09472        0.28977        2.60484
H         -1.11799        1.78912        2.55506
O          0.69566       -2.45006       -1.93281
C          1.63812       -0.47107        0.19016
C          0.74111        0.58604        0.86200
N          1.72733        1.48782        1.40428
C          2.94569        0.95279        1.42652
N          2.92178       -0.28464        0.87849
H          1.75643       -0.22634       -0.87315
N          4.01055        1.53838        1.92629
C          4.08298       -1.06516        0.57511
H          4.93916        1.22401        1.62360
H         -0.86132        1.21342       -1.90171
C         -2.54444       -0.06444       -0.00204
O          4.64292       -0.74331       -0.68920
H          4.82612       -0.94759        1.37233
H          3.80047       -2.12031        0.51328
C          5.68418        0.10110       -0.71331
O          6.15172        0.65071        0.27233
N          6.14643        0.31896       -1.96062
H          7.04839        0.78123       -2.05674
O          5.79530       -0.51365       -2.98680
H          5.13900       -0.03101       -3.51204
H         -3.51363        0.06894        0.49416
H         -2.71520        0.12163       -1.07091
N         -1.19968       -2.04206       -0.79781
C         -2.17646       -1.54562        0.17135
C         -3.35191       -2.48402       -0.18880
C         -3.19276       -2.65424       -1.70081
O         -1.85861       -2.22553       -2.00580
H         -1.85841       -1.78929        1.18634
C         -4.75001       -2.05689        0.23382
H         -3.13678       -3.44638        0.30118
H         -3.32364       -3.69609       -2.02506
H         -3.87654       -2.00606       -2.26827
O         -5.70553       -3.03343       -0.12011
H         -4.76319       -1.84812        1.31912
H         -5.04783       -1.13515       -0.28723
H         -5.49657       -3.84300        0.36202
O         -2.48401        2.26629        0.61203
S         -3.17258        2.90852       -0.75729
O         -2.10503        2.77154       -1.78189
O         -4.36876        2.11914       -1.05062
O         -3.42023        4.27913       -0.32770
H          3.91714        2.47588        2.30566
H         -0.87839       -0.81669        4.18957
H          1.51073        2.43172        1.70859
H         -0.55053        3.11407       -0.68738
