62
ZTX_337_solv.log	Energy: -1483136.7057118
C         -1.43946        1.40170       -0.39561
N         -1.35978        1.23568        1.03469
C         -0.66879        0.25009        1.60545
C         -0.40112        2.25793       -1.15221
H         -2.35995        1.96127       -0.59412
N         -0.47795        0.23045        2.91155
H         -0.75323        1.02389        3.48247
H         -1.88273        1.87414        1.62774
N         -0.12523       -0.70163        0.82166
C          0.77990       -1.18437       -1.33766
C          1.91077       -0.92589       -0.26941
C          1.19751       -1.27254        1.04777
O          0.90409       -2.49121       -1.77585
O          0.77645       -0.28329       -2.38935
H          1.67869       -0.82261        1.92243
H          1.14110       -2.35967        1.19048
O         -0.81178        2.80970       -2.16858
C         -1.56172        0.04752       -1.09059
C         -0.57452       -0.99308       -0.53663
N         -1.38544       -2.19399       -0.55404
C         -2.69024       -1.89772       -0.60258
N         -2.86279       -0.58988       -0.88301
H         -1.39411        0.18028       -2.16710
N         -3.66435       -2.75918       -0.43458
C         -4.07318       -0.00447       -1.39420
H         -4.61086       -2.39775       -0.27582
H          1.60834       -0.36895       -2.87733
C          2.50403        0.50189       -0.27569
O         -4.75468        0.77087       -0.42604
H         -3.81011        0.69609       -2.19436
H         -4.73105       -0.78385       -1.79842
C         -5.57102        0.12058        0.42416
O         -5.78653       -1.07639        0.39480
N         -6.07686        0.98620        1.32754
H         -6.05536        1.98625        1.13556
O         -7.12514        0.55653        2.09107
H         -6.76048        0.38364        2.97219
H          3.37867        0.38966        0.37522
H          2.88750        0.70776       -1.28537
N          0.87494        2.36829       -0.75179
C          1.74881        1.73612        0.23880
C          2.68367        2.93623        0.50987
C          2.80020        3.57962       -0.87025
O          1.67211        3.10612       -1.61885
H          1.19520        1.53975        1.15882
C          4.02254        2.65169        1.17384
H          2.12355        3.61617        1.17096
H          2.77205        4.67728       -0.83193
H          3.70658        3.25584       -1.40375
O          4.74141        3.84497        1.40112
H          3.85993        2.08786        2.11026
H          4.65600        2.03415        0.52064
H          4.23611        4.38518        2.02099
O          2.98889       -1.78126       -0.60433
S          3.97591       -2.48213        0.53892
O          3.23612       -3.65828        1.01468
O          5.15221       -2.78872       -0.27217
O          4.18142       -1.45689        1.57545
H         -3.44467       -3.72027       -0.19103
H         -0.06929       -0.57972        3.36590
H         -1.03783       -3.07248       -0.17698
H          0.19251       -2.66035       -2.41028
