62
ZTX_384_solv.log	Energy: -1483138.2111258
C          0.92983       -2.16661        0.46525
N          0.46706       -2.34581        1.82042
C         -0.21365       -1.40644        2.47584
C         -0.01286       -2.53949       -0.70305
H          1.74473       -2.88145        0.32057
N         -0.83791       -1.68660        3.60457
H         -0.89369       -2.64541        3.93480
H          0.63169       -3.23911        2.27565
N         -0.29538       -0.17896        1.93437
C         -0.27698        1.27153        0.02366
C         -1.74034        1.07921        0.61287
C         -1.45016        0.69486        2.06622
O          0.15845        2.56073        0.22048
O         -0.15544        0.98387       -1.32972
H         -2.29081        0.17062        2.53677
H         -1.21025        1.59390        2.65136
O          0.36118       -3.36606       -1.50666
C          1.47992       -0.75228        0.24525
C          0.64489        0.34588        0.95325
N          1.67446        1.13034        1.59578
C          2.88831        0.60451        1.46447
N          2.82120       -0.57920        0.81577
H          1.52484       -0.53890       -0.83234
N          3.98970        1.15426        1.92393
C          3.96005       -1.30591        0.33661
H          4.89651        0.85974        1.54583
H         -0.52801        0.11072       -1.52787
C         -2.62766        0.03883       -0.09292
O          4.43059       -0.82290       -0.91174
H          4.75870       -1.28047        1.08784
H          3.67569       -2.34778        0.16290
C          5.48128        0.02117       -0.90479
O          6.03988        0.42062        0.10069
N          5.79008        0.38148       -2.16586
H          5.44450       -0.16004       -2.95579
O          6.96821        1.04151       -2.36624
H          6.73673        1.97502       -2.48808
H         -3.60805        0.14186        0.39026
H         -2.76509        0.33039       -1.14272
N         -1.10412       -1.72294       -0.94272
C         -2.22813       -1.43394       -0.03426
C         -3.29226       -2.40073       -0.59855
C         -2.97700       -2.42238       -2.09156
O         -1.64385       -1.89835       -2.21418
H         -1.99222       -1.76485        0.97922
C         -4.74580       -2.07935       -0.28303
H         -3.06557       -3.39063       -0.17162
H         -3.00682       -3.43414       -2.51843
H         -3.63814       -1.75986       -2.66933
O         -5.61163       -3.04937       -0.83109
H         -4.87707       -1.98777        0.81038
H         -5.03291       -1.11857       -0.73522
H         -5.40681       -3.89710       -0.41772
O         -2.44694        2.30937        0.71452
S         -2.99214        3.24621       -0.54538
O         -3.87987        2.42157       -1.36725
O         -3.64753        4.31629        0.19737
O         -1.75753        3.65998       -1.25254
H          3.92773        2.06112        2.37717
H         -1.20661       -0.94652        4.19295
H          1.50913        2.08848        1.88920
H         -0.43032        3.14245       -0.31405
