62
ZTX_230_solv.log	Energy: -1483137.5680541
C         -1.41842        1.39928        1.00402
N         -0.67756        1.30232        2.23818
C          0.30307        0.41765        2.41019
C         -0.90734        2.30702       -0.13749
H         -2.37190        1.88132        1.24386
N          1.07950        0.46864        3.47699
H          1.01031        1.24950        4.12268
H         -0.93756        1.90466        3.01399
N          0.52409       -0.49566        1.44581
C          0.36091       -0.95082       -0.89772
C          1.83744       -0.58707       -0.45305
C          1.85128       -0.94751        1.04502
O          0.28127       -2.20191       -1.47920
O         -0.19855       -0.02880       -1.76179
H          2.63544       -0.41523        1.59578
H          1.95715       -2.02416        1.22361
O         -1.76774        2.78354       -0.86885
C         -1.71626        0.00884        0.45151
C         -0.46946       -0.89060        0.45032
N         -1.04675       -2.17177        0.78150
C         -2.25925       -2.04695        1.31647
N         -2.66533       -0.75702        1.27426
H         -2.09867        0.10101       -0.57283
N         -2.95404       -3.04757        1.80672
C         -4.03581       -0.36856        1.45646
H         -3.90409       -2.92752        2.14071
H          0.31834       -0.01679       -2.57955
C          2.24904        0.88140       -0.67816
O         -4.85502       -0.75638        0.36874
H         -4.44426       -0.86635        2.34262
H         -4.08660        0.71448        1.61176
C         -5.00614        0.12707       -0.64421
O         -4.53707        1.24352       -0.66015
N         -5.71933       -0.44947       -1.64005
H         -6.28634       -1.27122       -1.44028
O         -6.22257        0.38080       -2.60391
H         -5.65755        0.25979       -3.38152
H          3.32511        0.85813       -0.46677
H          2.13960        1.11400       -1.74708
N          0.39970        2.55943       -0.32468
C          1.67769        2.03620        0.15487
C          2.51071        3.33545        0.02713
C          1.92538        3.98210       -1.22738
O          0.66484        3.33478       -1.44707
H          1.61906        1.80009        1.21689
C          4.01597        3.18080       -0.00134
H          2.24763        3.94954        0.90113
H          1.76627        5.06309       -1.10701
H          2.53951        3.80026       -2.12140
O          4.41031        2.50176        1.17200
H          4.32981        2.63494       -0.90841
H          4.47067        4.18623       -0.05833
H          5.35572        2.32346        1.11227
O          2.75464       -1.29035       -1.28210
S          3.51525       -2.69451       -0.84613
O          4.25721       -3.00165       -2.06144
O          4.32772       -2.37305        0.32934
O          2.39650       -3.62573       -0.55259
H         -2.55079       -3.97940        1.82301
H          1.73397       -0.27954        3.68131
H         -0.52637       -3.04381        0.74647
H          0.98432       -2.80457       -1.14974
