62
ZTX_93_solv.log	Energy: -1483138.6901415
C          1.00994       -2.00068        0.06778
N          0.58907       -2.38996        1.39160
C         -0.03938       -1.55763        2.22055
C          0.05795       -2.16016       -1.13883
H          1.81150       -2.68874       -0.22003
N         -0.58166       -2.00247        3.33944
H         -0.62459       -2.99916        3.53003
H          0.78555       -3.33640        1.70506
N         -0.15856       -0.26128        1.87357
C         -0.32109        1.27735        0.04700
C         -1.73522        0.94377        0.66449
C         -1.36995        0.52435        2.09178
O         -0.08055        2.62430        0.29046
O         -0.19693        0.96422       -1.29016
H         -2.15360       -0.07519        2.56999
H         -1.16507        1.41060        2.70848
O          0.59891       -2.36629       -2.22057
C          1.57726       -0.58596        0.08048
C          0.69617        0.39111        0.88235
N          1.69632        1.20765        1.52784
C          2.91064        0.66386        1.47409
N          2.87689       -0.48226        0.75812
H          1.67319       -0.22677       -0.95229
N          3.97986        1.16806        2.04742
C          4.03254       -1.22454        0.35118
H          4.90652        0.89081        1.70585
H         -0.91429        1.46781       -1.73148
C         -2.56579       -0.13645       -0.06481
O          4.60402       -0.73940       -0.85282
H          4.77367       -1.22598        1.15961
H          3.74031       -2.25850        0.14622
C          5.64652        0.10971       -0.75695
O          6.11620        0.51199        0.29173
N          6.05877        0.46945       -1.98847
H          5.78401       -0.07766       -2.80209
O          7.24687        1.13383       -2.09142
H          7.02219        2.06486       -2.24116
H         -3.56572       -0.02965        0.36954
H         -2.66820        0.13846       -1.12262
N         -1.27441       -2.06649       -1.01528
C         -2.22686       -1.63097        0.00748
C         -3.40599       -2.54693       -0.39287
C         -3.32376       -2.51637       -1.91513
O         -1.96188       -2.18395       -2.22031
H         -1.89870       -1.95367        0.99586
C         -4.78195       -2.29659        0.21897
H         -3.11676       -3.55457       -0.05735
H         -3.56786       -3.48561       -2.37175
H         -3.95599       -1.73279       -2.35924
O         -5.44740       -1.12502       -0.19566
H         -5.40301       -3.18707        0.01847
H         -4.66653       -2.22512        1.31106
H         -5.67588       -1.20862       -1.12873
O         -2.52076        2.11671        0.78629
S         -3.22019        2.85461       -0.53371
O         -4.56250        2.27361       -0.62740
O         -3.18690        4.25892       -0.13414
O         -2.36114        2.52583       -1.69348
H          3.89378        2.04683        2.54938
H         -0.93963       -1.35582        4.03470
H          1.47595        2.07310        2.01151
H          0.71851        2.87497       -0.19470
