62
ZTX_194_solv.log	Energy: -1483142.3543010
C          1.43178        1.23379        0.57284
N          1.55435        1.46740       -0.84610
C          0.94305        0.71116       -1.75648
C          0.30843        1.90360        1.39393
H          2.31911        1.67678        1.03744
N          0.92556        1.06782       -3.02756
H          1.27755        1.97747       -3.31094
H          2.15838        2.22091       -1.16210
N          0.29283       -0.39806       -1.35199
C         -0.85356       -1.50132        0.42234
C         -1.85855       -0.84950       -0.61162
C         -1.00550       -0.80283       -1.88213
O         -0.94931       -2.88770        0.33828
O         -1.01518       -1.06206        1.72089
H         -1.37888       -0.07968       -2.61689
H         -0.95677       -1.79669       -2.34870
O          0.58865        2.17025        2.55866
C          1.45131       -0.26233        0.87508
C          0.57895       -1.08731       -0.09127
N          1.42230       -2.23762       -0.32000
C          2.68519       -2.01984        0.04508
N          2.78217       -0.84857        0.70931
H          1.11003       -0.42599        1.90564
N          3.68883       -2.83671       -0.17789
C          3.87334       -0.46039        1.55863
H          4.64220       -2.47911       -0.05799
H         -1.94716       -1.25408        1.94952
C         -2.45646        0.52588       -0.25219
O          4.70432        0.52240        0.96695
H          3.46201        0.01200        2.45763
H          4.46321       -1.33872        1.84930
C          5.67492        0.09471        0.13904
O          5.90927       -1.07393       -0.10576
N          6.31719        1.15123       -0.40191
H          6.23935        2.06864        0.03339
O          7.49468        0.90634       -1.04994
H          7.29901        0.97555       -1.99663
H         -3.28703        0.63974       -0.95777
H         -2.91053        0.47987        0.74591
N         -0.90935        2.14017        0.88444
C         -1.63453        1.81886       -0.34275
C         -2.49947        3.10051       -0.43156
C         -2.80688        3.39150        1.03614
O         -1.81575        2.67646        1.78967
H         -0.95741        1.84130       -1.19697
C         -3.70027        3.10005       -1.36278
H         -1.82105        3.88060       -0.80622
H         -2.73995        4.46260        1.27403
H         -3.78810        3.00503        1.34072
O         -4.77833        2.38204       -0.80403
H         -3.98816        4.15024       -1.54756
H         -3.39131        2.67303       -2.33399
H         -5.46438        2.30060       -1.47587
O         -2.91240       -1.77193       -0.87172
S         -4.21776       -1.97696        0.17681
O         -5.21064       -0.98937       -0.24169
O         -4.55916       -3.36709       -0.10716
O         -3.66309       -1.74308        1.52578
H          3.53259       -3.67514       -0.72849
H          0.58467        0.43131       -3.74060
H          1.11797       -3.03037       -0.87626
H         -1.74341       -3.10200       -0.17675
