62
ZTX_291_solv.log	Energy: -1483138.6120667
C          1.02445       -1.89439        0.73404
N          0.46393       -1.70420        2.04922
C         -0.27426       -0.63959        2.35921
C          0.20975       -2.60898       -0.36881
H          1.86195       -2.59096        0.84670
N         -0.92605       -0.57966        3.50622
H         -0.95988       -1.38949        4.11829
H          0.65997       -2.39309        2.77014
N         -0.38902        0.35008        1.45437
C         -0.38332        0.88940       -0.87645
C         -1.84741        0.81783       -0.27583
C         -1.62005        1.09517        1.22220
O         -0.09850        2.13252       -1.41163
O         -0.13251       -0.07148       -1.83734
H         -2.43707        0.71865        1.84805
H         -1.46720        2.15924        1.43870
O          0.87020       -3.21267       -1.20760
C          1.56178       -0.57641        0.18474
C          0.55503        0.57443        0.36143
N          1.43340        1.67867        0.65962
C          2.65876        1.27533        0.98610
N          2.74825       -0.07160        0.88955
H          1.79696       -0.70098       -0.87990
N          3.63320        2.07338        1.36185
C          3.96289       -0.82045        1.01275
H          4.60291        1.75031        1.27843
H         -0.73895        0.06387       -2.57966
C         -2.59012       -0.51492       -0.50227
O          4.67704       -0.92121       -0.20900
H          4.59088       -0.37699        1.79446
H          3.72270       -1.84796        1.30087
C          5.68026       -0.04790       -0.42650
O          5.99338        0.84844        0.33523
N          6.25129       -0.29481       -1.62262
H          6.10789       -1.19268       -2.08096
O          7.43447        0.32889       -1.89836
H          7.22469        1.03687       -2.52621
H         -3.61751       -0.28202       -0.19875
H         -2.63059       -0.70580       -1.58402
N         -1.13193       -2.56932       -0.41594
C         -2.21099       -1.81311        0.22172
C         -3.31263       -2.90015        0.15310
C         -3.01924       -3.58322       -1.18272
O         -1.67388       -3.21666       -1.52004
H         -1.99129       -1.65802        1.27836
C         -4.75771       -2.48143        0.36809
H         -3.07503       -3.60421        0.96344
H         -3.09453       -4.67813       -1.11692
H         -3.66537       -3.21653       -1.99058
O         -5.27699       -1.83284       -0.77249
H         -5.34365       -3.38885        0.59813
H         -4.80522       -1.82982        1.25964
H         -6.16932       -1.53430       -0.56454
O         -2.67077        1.74367       -0.97615
S         -3.07302        3.24604       -0.41167
O         -3.81573        3.02967        0.83204
O         -1.76061        3.91043       -0.20745
O         -3.84819        3.76949       -1.52839
H          3.45689        3.07323        1.39241
H         -1.37264        0.28049        3.80652
H          1.14718        2.65170        0.60704
H         -0.62363        2.84507       -0.98411
