62
ZTX_400_solv.log	Energy: -1483135.6713566
C         -1.66602        1.06570        0.91700
N         -1.21234        1.03295        2.28476
C         -0.31245        0.15240        2.71762
C         -0.92800        1.91626       -0.14076
H         -2.64981        1.54929        0.91975
N          0.21177        0.26550        3.92436
H          0.01210        1.08084        4.49591
H         -1.61977        1.68406        2.95010
N          0.10242       -0.82773        1.88835
C          0.49370       -1.31862       -0.43349
C          1.81990       -0.88787        0.30966
C          1.50184       -1.21655        1.77216
O          0.53477       -2.62615       -0.86488
O          0.24875       -0.43368       -1.47496
H          2.13284       -0.66153        2.47592
H          1.62732       -2.29392        1.94686
O         -1.60795        2.29477       -1.08910
C         -1.83476       -0.35012        0.38475
C         -0.62872       -1.24785        0.69075
N         -1.28085       -2.51849        0.89709
C         -2.58878       -2.38445        1.10936
N         -2.95156       -1.08516        0.99379
H         -1.99181       -0.30272       -0.70191
N         -3.38606       -3.38693        1.39838
C         -4.30202       -0.62132        0.81925
H         -4.38500       -3.26507        1.52107
H         -0.37342       -0.84919       -2.08960
C          2.25818        0.57266        0.09700
O         -4.62762       -0.56340       -0.55572
H         -5.00197       -1.30494        1.30976
H         -4.41359        0.36982        1.27408
C         -4.70815        0.66081       -1.13456
O         -4.78221        1.70833       -0.53104
N         -4.65627        0.52267       -2.47749
H         -4.81046       -0.38720       -2.90676
O         -5.01659        1.60074       -3.23592
H         -4.18785        2.01136       -3.52583
H          3.28331        0.60554        0.48082
H          2.33236        0.76421       -0.98029
N          0.37061        2.23443       -0.02126
C          1.51960        1.75085        0.75000
C          2.34066        3.06075        0.74823
C          2.08811        3.58963       -0.66105
O          0.86534        2.97563       -1.09122
H          1.22773        1.56104        1.78383
C          3.79565        3.02909        1.20987
H          1.82597        3.72608        1.45786
H          1.97390        4.68240       -0.68695
H          2.86985        3.28684       -1.37363
O          4.70734        2.35838        0.36926
H          4.11534        4.07313        1.37385
H          3.83714        2.52422        2.18687
H          4.78296        2.84195       -0.46156
O          2.90766       -1.75441       -0.00343
S          3.69835       -1.86153       -1.46097
O          4.32707       -0.56733       -1.72946
O          4.62148       -2.95273       -1.16933
O          2.63304       -2.20636       -2.43268
H         -2.99863       -4.32029        1.49731
H          0.78696       -0.47542        4.31154
H         -0.77717       -3.39781        0.96027
H          1.26313       -2.67756       -1.52653
