62
ZTX_2_solv.log	Energy: -1483140.2042779
C          0.94832       -1.98488        0.11133
N          0.50994       -2.33244        1.44076
C         -0.08382       -1.45773        2.25149
C         -0.01008       -2.11626       -1.09258
H          1.71911       -2.71173       -0.16541
N         -0.64441       -1.85580        3.37860
H         -0.72760       -2.84574        3.59018
H          0.66679       -3.27972        1.77311
N         -0.14972       -0.16655        1.87590
C         -0.26284        1.33197        0.01224
C         -1.67996        1.08257        0.66031
C         -1.31497        0.68315        2.09324
O          0.04262        2.67402        0.19555
O         -0.17493        0.95981       -1.31286
H         -2.12008        0.13821        2.59990
H         -1.05457        1.57386        2.68224
O          0.52289       -2.35492       -2.17084
C          1.57215       -0.59382        0.09551
C          0.72546        0.43266        0.86951
N          1.75209        1.23221        1.49411
C          2.94702        0.64489        1.45688
N          2.87184       -0.52109        0.77627
H          1.68548       -0.26286       -0.94506
N          4.03441        1.12833        2.01328
C          3.99744       -1.32007        0.39498
H          4.94966        0.80860        1.67713
H         -0.87528        1.47600       -1.76525
C         -2.57053        0.01805       -0.02156
O          4.58573       -0.89395       -0.82339
H          4.73769       -1.32484        1.20432
H          3.66348       -2.34746        0.22273
C          5.67567       -0.10518       -0.75383
O          6.13976        0.34367        0.27842
N          6.19379        0.07223       -1.98522
H          5.64320       -0.15648       -2.81062
O          7.12370        1.05918       -2.14543
H          7.98271        0.61357       -2.20032
H         -2.72287        0.29004       -1.07397
H         -3.53433        0.16415        0.48128
N         -1.33817       -1.95548       -0.97674
C         -2.27835       -1.48766        0.04219
C         -3.50002       -2.34119       -0.36628
C         -3.37335       -2.39909       -1.88927
O         -2.02075       -2.02394       -2.18418
H         -1.96520       -1.82183        1.03199
C         -4.85857       -1.88359        0.12666
H         -3.32572       -3.34746        0.04276
H         -3.56762       -3.40296       -2.29186
H         -4.02710       -1.67029       -2.39040
O         -5.78665       -2.89158       -0.21452
H         -4.81814       -1.72377        1.22042
H         -5.13565       -0.92342       -0.34276
H         -6.66925       -2.56170       -0.01235
O         -2.41307        2.29004        0.75816
S         -3.11695        3.00384       -0.57442
O         -4.47321        2.44914       -0.63183
O         -3.04876        4.41727       -0.21521
O         -2.27997        2.62067       -1.73300
H          3.98006        2.02465        2.48811
H         -0.97714       -1.18094        4.05946
H          1.56327        2.12150        1.94679
H          0.85156        2.86122       -0.30228
