62
ZTX_430_solv.log	Energy: -1483132.0901851
C         -1.54609        1.06862        1.12810
N         -0.86607        0.76075        2.36202
C          0.08732       -0.16549        2.44036
C         -0.97124        2.13880        0.17200
H         -2.50140        1.52970        1.39967
N          0.81737       -0.29116        3.53382
H          0.73729        0.38747        4.28508
H         -1.14334        1.25284        3.20661
N          0.33288       -0.93912        1.36446
C          0.28944       -0.99182       -1.02789
C          1.73838       -0.70669       -0.47037
C          1.67359       -1.32167        0.93821
O          0.32749       -2.18585       -1.72807
O         -0.23861        0.03584       -1.79036
H          2.43597       -0.91800        1.61314
H          1.77817       -2.41344        0.89476
O         -1.78757        2.72079       -0.53319
C         -1.84147       -0.21149        0.35709
C         -0.61200       -1.12869        0.26707
N         -1.23223       -2.43206        0.34163
C         -2.46112       -2.36416        0.85737
N         -2.83426       -1.07440        1.01636
H         -2.18234        0.04203       -0.65541
N         -3.18858       -3.41510        1.15500
C         -4.19489       -0.66660        1.22805
H         -4.13919       -3.32713        1.49773
H          0.32870        0.17804       -2.56157
C          2.14324        0.78326       -0.46130
O         -4.96390       -0.74560        0.04318
H         -4.66909       -1.32885        1.95995
H         -4.20775        0.35344        1.62668
C         -5.13752        0.39308       -0.66690
O         -4.67206        1.47020       -0.36935
N         -5.94994        0.14257       -1.72155
H         -6.06627       -0.81668       -2.04274
O         -5.98829        1.08913       -2.70928
H         -6.83891        1.54250       -2.61284
H          3.22372        0.74650       -0.29280
H          2.01170        1.18274       -1.47671
N          0.33907        2.43579        0.13697
C          1.58681        1.79071        0.55276
C          2.45454        3.06246        0.70274
C          1.95039        3.93826       -0.44346
O          0.66797        3.40538       -0.80576
H          1.47942        1.36924        1.55278
C          3.96283        2.89122        0.79033
H          2.14197        3.51970        1.65270
H          1.83657        4.99092       -0.14740
H          2.59060        3.87241       -1.33282
O          4.52989        2.63846       -0.47777
H          4.38851        3.81316        1.22521
H          4.18051        2.07005        1.49559
H          5.39461        2.23493       -0.34358
O          2.64645       -1.34266       -1.35280
S          4.09004       -1.99654       -0.84600
O          4.81940       -2.05130       -2.11098
O          4.63468       -1.05696        0.14863
O          3.74043       -3.30804       -0.28406
H         -2.79837       -4.34581        1.04194
H          1.45110       -1.07562        3.64720
H         -0.70558       -3.29657        0.24836
H         -0.55535       -2.34395       -2.09317
