62
ZTX_289_solv.log	Energy: -1483140.9019806
C          1.59343        0.79476        0.87117
N          1.79411        1.18828       -0.50146
C          1.13827        0.60743       -1.50450
C          0.51310        1.48109        1.73390
H          2.50692        1.08828        1.39854
N          1.23413        1.07333       -2.73562
H          1.71696        1.94819       -2.91659
H          2.60105        1.77292       -0.70901
N          0.32328       -0.42986       -1.22817
C         -1.03642       -1.45627        0.45895
C         -1.89985       -0.63550       -0.58132
C         -0.99641       -0.59665       -1.81735
O         -1.31418       -2.80435        0.42891
O         -1.22616       -0.91024        1.72214
H         -1.24238        0.23181       -2.49235
H         -1.07122       -1.54541       -2.36700
O          0.73486        1.51249        2.93953
C          1.46012       -0.72017        0.97738
C          0.45805       -1.28342       -0.04643
N          1.08357       -2.53862       -0.39377
C          2.38089       -2.53723       -0.08557
N          2.69218       -1.44471        0.64131
H          1.15444       -0.98070        1.99916
N          3.22674       -3.48013       -0.43443
C          3.95144       -1.27710        1.32346
H          4.20770       -3.43606       -0.17896
H         -0.93460       -1.55435        2.38303
C         -2.32763        0.77259       -0.13055
O          4.99026       -0.95843        0.41880
H          3.83813       -0.50636        2.09475
H          4.26029       -2.21629        1.79991
C          5.17027        0.33677        0.08209
O          4.58643        1.27156        0.58929
N          6.13061        0.42837       -0.86360
H          6.38778       -0.39046       -1.41116
O          6.26519        1.62874       -1.50259
H          7.05771        2.04507       -1.13127
H         -3.06917        1.05774       -0.88576
H         -2.85681        0.70590        0.82729
N         -0.59222        2.02826        1.19922
C         -1.31961        1.93005       -0.06696
C         -2.00557        3.31698       -0.03589
C         -2.29937        3.50686        1.45189
O         -1.46330        2.56653        2.13937
H         -0.62074        1.93244       -0.90399
C         -3.21211        3.49915       -0.93160
H         -1.23833        4.04248       -0.34442
H         -2.06801        4.52402        1.79850
H         -3.33969        3.26044        1.71002
O         -2.82142        3.21242       -2.25779
H         -4.03746        2.84292       -0.60310
H         -3.56956        4.53988       -0.83220
H         -3.60596        3.25049       -2.81643
O         -3.04419       -1.36633       -1.01121
S         -4.39250       -1.69856       -0.09932
O         -5.02010       -0.42330        0.25192
O         -5.14286       -2.52059       -1.04188
O         -3.86959       -2.43598        1.07524
H          2.90584       -4.26260       -0.99613
H          0.84890        0.55408       -3.51781
H          0.64644       -3.22019       -1.00651
H         -2.25606       -2.89823        0.70025
