62
ZTX_374_solv.log	Energy: -1483138.3436809
C         -1.35579        1.71196        0.43686
N         -0.80053        2.09402        1.71161
C          0.02140        1.30130        2.39585
C         -0.59440        2.03196       -0.87134
H         -2.26384        2.30840        0.29642
N          0.65506        1.74773        3.46448
H          0.60933        2.73088        3.71556
H         -1.07240        2.98524        2.11678
N          0.24078        0.04950        1.94850
C          0.34027       -1.31321       -0.02628
C          1.77663       -0.86989        0.46205
C          1.55237       -0.58125        1.94949
O          0.15689       -2.67591        0.04616
O          0.13033       -0.82582       -1.30946
H          2.31739        0.08347        2.36832
H          1.53994       -1.52228        2.51662
O         -1.29121        2.20250       -1.86531
C         -1.75568        0.23940        0.45193
C         -0.65090       -0.66093        1.03170
N         -1.43208       -1.64577        1.73951
C         -2.67944       -1.23435        1.95000
N         -2.89934       -0.05114        1.32960
H         -1.99126       -0.07096       -0.57424
N         -3.56463       -1.89787        2.65748
C         -4.21908        0.46454        1.09420
H         -4.52723       -1.58728        2.73627
H         -0.58693       -1.33370       -1.71514
C          2.39296        0.32800       -0.28304
O         -4.93486       -0.29473        0.13720
H         -4.80101        0.41558        2.02090
H         -4.14687        1.51151        0.78182
C         -4.84367        0.08528       -1.15768
O         -4.21998        1.04597       -1.55111
N         -5.51704       -0.79763       -1.93190
H         -6.21595       -1.40536       -1.50902
O         -5.78174       -0.41931       -3.21956
H         -5.16531       -0.91761       -3.77672
H          2.41188        0.11394       -1.35818
H          3.43374        0.32275        0.06014
N          0.74592        2.12537       -0.92228
C          1.87898        1.76012       -0.07200
C          2.88096        2.82676       -0.57253
C          2.56080        2.89808       -2.06269
O          1.23792        2.36153       -2.20226
H          1.66217        1.99014        0.97164
C          4.34671        2.59256       -0.24999
H          2.57546        3.77305       -0.09925
H          2.57751        3.92623       -2.45036
H          3.23340        2.26906       -2.66495
O          4.55563        2.38496        1.13046
H          4.72325        1.69973       -0.77058
H          4.93247        3.45084       -0.62394
H          4.26893        3.17919        1.59822
O          2.69767       -1.95583        0.45711
S          3.33721       -2.69577       -0.88615
O          4.11285       -1.69614       -1.62276
O          4.12377       -3.74574       -0.24894
O          2.15418       -3.18468       -1.63350
H         -3.29569       -2.76058        3.12062
H          1.16334        1.11053        4.06904
H         -1.02954       -2.48888        2.13774
H          0.81059       -3.07759       -0.57172
