62
ZTX_190_solv.log	Energy: -1483137.3556296
C         -1.49413        1.20122        1.03557
N         -0.76545        1.01559        2.26577
C          0.19432        0.10175        2.39784
C         -0.96659        2.17952       -0.03831
H         -2.44421        1.67802        1.29864
N          0.96027        0.08465        3.47308
H          0.90521        0.83723        4.15275
H         -1.01186        1.58595        3.06990
N          0.40664       -0.77448        1.39498
C          0.28497       -1.03694       -0.97603
C          1.74063       -0.67308       -0.50328
C          1.74176       -1.16570        0.95313
O          0.25807       -2.30730       -1.51777
O         -0.15317       -0.07742       -1.87650
H          2.51617       -0.68533        1.56026
H          1.87087       -2.25466        1.00356
O         -1.81329        2.68633       -0.76483
C         -1.80552       -0.14615        0.39589
C         -0.57709       -1.07058        0.35081
N         -1.18867       -2.35895        0.57237
C         -2.41255       -2.24899        1.08223
N         -2.77945       -0.94811        1.15298
H         -2.18150        0.02094       -0.62280
N         -3.15137       -3.26946        1.45230
C         -4.13454       -0.53229        1.37972
H         -4.10921       -3.14938        1.76350
H         -0.90651       -0.43515       -2.36755
C          2.15234        0.80266       -0.64663
O         -4.96429       -0.76933        0.25725
H         -4.55947       -1.10834        2.20899
H         -4.14746        0.52861        1.65119
C         -5.15960        0.25407       -0.60516
O         -4.65909        1.35167       -0.49818
N         -6.03456       -0.12967       -1.56425
H         -6.19660       -1.12130       -1.72903
O         -6.12977        0.66622       -2.67261
H         -6.96213        1.15346       -2.58092
H          3.23299        0.76443       -0.46932
H          2.00198        1.10066       -1.69277
N          0.33908        2.47761       -0.15345
C          1.60601        1.89114        0.28478
C          2.46177        3.17987        0.28330
C          1.89699        3.95127       -0.90894
O          0.62476        3.35368       -1.19462
H          1.53209        1.55771        1.31972
C          3.96356        2.99241        0.24725
H          2.20584        3.71613        1.20919
H          1.75815        5.01954       -0.69036
H          2.51388        3.84025       -1.81260
O          4.33461        2.19339        1.35107
H          4.27006        2.52781       -0.70576
H          4.44490        3.98633        0.28897
H          5.23877        1.88985        1.21216
O          2.58988       -1.39624       -1.38379
S          4.03944       -2.09430       -0.89762
O          3.64548       -3.37689       -0.30366
O          4.72753       -2.19701       -2.18035
O          4.62327       -1.14371        0.05864
H         -2.77133       -4.20993        1.40516
H          1.60292       -0.68248        3.64145
H         -0.69718       -3.23538        0.42701
H          1.13124       -2.44468       -1.92602
