62
ZTX_312_solv.log	Energy: -1483137.7691646
C          0.97597       -1.94156        0.60115
N          0.36907       -1.81216        1.90295
C         -0.38205       -0.76360        2.23554
C          0.20050       -2.60179       -0.56204
H          1.81019       -2.64259        0.71089
N         -1.08162       -0.76279        3.35541
H         -1.14515       -1.60404        3.92082
H          0.52811       -2.54036        2.59369
N         -0.46036        0.27126        1.37892
C         -0.36371        0.94199       -0.91666
C         -1.84960        0.83934       -0.37767
C         -1.67910        1.03485        1.14094
O         -0.05753        2.21475       -1.36079
O         -0.07828        0.04172       -1.92555
H         -2.52178        0.63190        1.71416
H         -1.53038        2.08572        1.41759
O          0.88691       -3.17476       -1.40147
C          1.53271       -0.59982        0.13305
C          0.52600        0.54813        0.33602
N          1.39763        1.62841        0.72632
C          2.61283        1.20219        1.06174
N          2.69905       -0.13868        0.89891
H          1.79972       -0.67296       -0.92890
N          3.58202        1.97408        1.49714
C          3.91283       -0.89043        1.00520
H          4.55206        1.64301        1.44997
H         -0.64018        0.24281       -2.68797
C         -2.57814       -0.48152       -0.70324
O          4.67919       -0.87030       -0.18978
H          4.50432       -0.51705        1.84988
H          3.66697       -1.94102        1.18574
C          5.73318       -0.03336       -0.24957
O          6.01044        0.79210        0.60180
N          6.45072       -0.27652       -1.36394
H          6.05197       -0.82939       -2.12034
O          7.38198        0.65145       -1.73283
H          8.24359        0.27684       -1.49449
H         -3.61632       -0.24884       -0.43487
H         -2.56609       -0.62040       -1.79352
N         -1.13721       -2.54165       -0.66029
C         -2.22974       -1.81227       -0.02070
C         -3.33278       -2.88277       -0.18869
C         -3.02982       -3.42430       -1.58057
O         -1.64271       -3.13711       -1.81327
H         -2.04918       -1.70757        1.04901
C         -4.77579       -2.45607        0.02691
H         -3.10703       -3.66466        0.55189
H         -3.19024       -4.50856       -1.65726
H         -3.61041       -2.91238       -2.36324
O         -5.01753       -2.03326        1.35168
H         -5.07533       -1.68744       -0.70618
H         -5.41931       -3.33016       -0.15376
H         -4.65691       -1.14593        1.46619
O         -2.64748        1.80016       -1.05855
S         -3.07813        3.26994       -0.42919
O         -3.81996        3.84680       -1.54184
O         -3.85927        2.98461        0.77645
O         -1.77695        3.92755       -0.14787
H          3.41131        2.97165        1.58193
H         -1.54849        0.07871        3.67683
H          1.12122        2.60537        0.70047
H         -0.60813        2.90096       -0.92180
