62
ZTX_317_solv.log	Energy: -1483137.8844444
C         -1.13938        1.77812        0.79102
N         -0.57463        1.57178        2.10199
C          0.20844        0.53085        2.38037
C         -0.35095        2.55948       -0.28442
H         -2.00494        2.43641        0.92106
N          0.86153        0.46368        3.52618
H          0.85942        1.25499        4.16284
H         -0.80399        2.22686        2.84417
N          0.36673       -0.42492        1.44569
C          0.38230       -0.89197       -0.90038
C          1.84314       -0.76906       -0.29701
C          1.63202       -1.10445        1.19145
O          0.15399       -2.12787       -1.47514
O          0.08865        0.08754       -1.83065
H          2.42928       -0.70842        1.83068
H          1.52944       -2.18057        1.37508
O         -1.03090        3.14964       -1.11676
C         -1.62175        0.45636        0.20276
C         -0.56754       -0.65564        0.34561
N         -1.40062       -1.80408        0.60910
C         -2.63870       -1.46064        0.95544
N         -2.78435       -0.11601        0.89550
H         -1.86338        0.60172       -0.85785
N         -3.57718       -2.30716        1.31591
C         -4.03407        0.57190        1.02074
H         -4.56109       -2.02222        1.25312
H          0.69700       -0.00217       -2.57850
C          2.52181        0.60560       -0.47870
O         -4.75201        0.62974       -0.20319
H         -4.63908        0.10137        1.80432
H         -3.84389        1.61105        1.30429
C         -5.72555       -0.27139       -0.40101
O         -6.00886       -1.16669        0.38069
N         -6.34365       -0.11356       -1.58777
H         -7.21048       -0.62350       -1.74509
O         -6.19546        1.04166       -2.30350
H         -5.57112        0.83807       -3.01659
H          3.56247        0.40699       -0.19702
H          2.54037        0.84309       -1.55175
N          0.99205        2.60518       -0.30158
C          2.09604        1.85619        0.30334
C          3.15672        2.98514        0.29212
C          2.84270        3.72169       -1.01025
O          1.51431        3.32056       -1.37346
H          1.88018        1.64591        1.35121
C          4.61524        2.61237        0.49785
H          2.88898        3.63970        1.13400
H          2.87527        4.81407       -0.88931
H          3.50572        3.42128       -1.83161
O          5.16488        2.03208       -0.66498
H          5.16512        3.53085        0.76939
H          4.68318        1.92630        1.36189
H          6.06949        1.76702       -0.46472
O          2.70775       -1.63181       -1.02790
S          3.17428       -3.13551       -0.51794
O          3.96125       -3.58844       -1.65692
O          3.91677       -2.93068        0.72780
O          1.89201       -3.86027       -0.32719
H         -3.36016       -3.29951        1.31632
H          1.34301       -0.38578        3.80210
H         -1.07092       -2.76206        0.53834
H          0.71052       -2.82869       -1.06839
