62
ZTX_40_solv.log	Energy: -1483141.1173669
C         -1.48320        1.40964        0.75003
N         -0.93599        1.60874        2.06966
C         -0.06620        0.76455        2.62081
C         -0.76483        1.98369       -0.49178
H         -2.43233        1.95537        0.71399
N          0.54501        1.07015        3.75014
H          0.45583        1.99962        4.14943
H         -1.24690        2.41121        2.61016
N          0.22415       -0.39109        1.98736
C          0.39933       -1.38189       -0.18783
C          1.81235       -0.91654        0.36679
C          1.58156       -0.91423        1.88042
O          0.34038       -2.76288       -0.30579
O          0.03416       -0.73953       -1.35981
H          2.29966       -0.28000        2.41370
H          1.64259       -1.93937        2.27068
O         -1.48144        2.24049       -1.45233
C         -1.77876       -0.06589        0.51625
C         -0.62000       -0.97893        0.94677
N         -1.34294       -2.12157        1.45060
C         -2.62320       -1.84488        1.68302
N         -2.90605       -0.57296        1.31204
H         -1.97897       -0.23155       -0.55122
N         -3.47434       -2.69771        2.20367
C         -4.24171       -0.09144        1.09438
H         -4.45809       -2.47456        2.30859
H          0.70978       -0.96716       -2.02378
C          2.33538        0.43687       -0.15412
O         -4.73007       -0.49906       -0.16924
H         -4.91202       -0.49823        1.85887
H         -4.25383        1.00119        1.17132
C         -4.75135        0.42050       -1.16391
O         -4.57437        1.60799       -1.01259
N         -4.96396       -0.20706       -2.34519
H         -5.35223       -1.14854       -2.34707
O         -5.33905        0.57435       -3.40410
H         -4.55437        0.65429       -3.96677
H          3.36889        0.45229        0.21152
H          2.39064        0.41393       -1.25073
N          0.56210        2.19187       -0.51994
C          1.72325        1.77943        0.26935
C          2.64794        2.97857       -0.05419
C          2.28882        3.29196       -1.50626
O          1.03077        2.64754       -1.74605
H          1.49617        1.82521        1.33477
C          4.12992        2.78053        0.18081
H          2.30688        3.80625        0.58515
H          2.18849        4.37097       -1.69027
H          3.00917        2.86497       -2.21930
O          4.31731        2.41998        1.53289
H          4.52682        2.00808       -0.50157
H          4.65254        3.72322       -0.06234
H          5.24814        2.20360        1.65871
O          2.81371       -1.90606        0.15412
S          3.43502       -2.23896       -1.34920
O          4.40047       -1.18579       -1.66318
O          4.00538       -3.56204       -1.12809
O          2.23912       -2.22872       -2.23252
H         -3.15529       -3.62110        2.48114
H          1.10399        0.37965        4.24074
H         -0.89854       -3.01021        1.65943
H          0.94018       -3.00019       -1.03595
