62
ZTX_415_solv.log	Energy: -1483135.6199196
C         -1.68778        0.75387        1.06852
N         -0.99396        0.51842        2.30988
C          0.03823       -0.31742        2.40889
C         -1.23259        1.87485        0.10654
H         -2.69129        1.10722        1.33150
N          0.75614       -0.36886        3.51550
H          0.61021        0.31178        4.25493
H         -1.32592        0.98764        3.14808
N          0.37408       -1.07693        1.34605
C          0.38917       -1.15693       -1.04016
C          1.77526       -0.68617       -0.46372
C          1.75876       -1.30346        0.94389
O          0.52031       -2.38661       -1.65477
O         -0.09859       -0.19033       -1.90634
H          2.45625       -0.81483        1.63173
H          1.98644       -2.37654        0.90636
O         -2.11090        2.36070       -0.59934
C         -1.83165       -0.54576        0.28393
C         -0.53184       -1.36478        0.23316
N         -1.04866       -2.70960        0.31451
C         -2.31477       -2.74207        0.72436
N         -2.79352       -1.48581        0.87392
H         -2.14834       -0.30772       -0.74122
N         -2.97958       -3.85045        0.95491
C         -4.19181       -1.14681        0.94383
H         -3.94826       -3.83981        1.25395
H         -0.77351       -0.59573       -2.46916
C          2.04092        0.83174       -0.47296
O         -4.67439       -0.80686       -0.34070
H         -4.76572       -2.00356        1.31087
H         -4.34121       -0.30842        1.63383
C         -4.96333        0.49815       -0.57895
O         -5.09563        1.34380        0.27840
N         -5.03836        0.70445       -1.90971
H         -5.10496       -0.07387       -2.56162
O         -5.55308        1.89320       -2.34066
H         -4.79003        2.46690       -2.51139
H          3.11343        0.88719       -0.25127
H          1.90720        1.18872       -1.50310
N          0.04441        2.28215        0.03314
C          1.34909        1.80211        0.49579
C          2.06767        3.16459        0.59336
C          1.48869        3.92725       -0.59710
O          0.26591        3.25679       -0.93331
H          1.26964        1.40504        1.50908
C          3.58212        3.14470        0.64872
H          1.71300        3.63579        1.52220
H          1.27057        4.97826       -0.36285
H          2.14317        3.87701       -1.48009
O          4.00867        4.46608        0.90576
H          3.91120        2.44989        1.44381
H          3.99921        2.78059       -0.30627
H          4.96925        4.48734        0.82980
O          2.73318       -1.24412       -1.35343
S          4.22037       -1.83918       -0.84399
O          4.97708       -1.76683       -2.08964
O          4.65735       -0.91954        0.21550
O          3.92824       -3.19895       -0.37601
H         -2.51612       -4.74722        0.84620
H          1.45878       -1.08946        3.64455
H         -0.47221       -3.53037        0.15657
H          1.41759       -2.40437       -2.03227
