62
ZTX_309_solv.log	Energy: -1483137.3132978
C         -1.38036        1.53090        0.81681
N         -0.84860        1.65215        2.15310
C         -0.05114        0.73439        2.69707
C         -0.59133        2.07999       -0.39418
H         -2.27579        2.15955        0.77701
N          0.57504        0.97346        3.83490
H          0.54462        1.89841        4.25331
H         -1.10409        2.46600        2.70535
N          0.14870       -0.42597        2.04114
C          0.23908       -1.48463       -0.09664
C          1.67877       -1.11421        0.44163
C          1.44750       -1.08568        1.95493
O          0.10752       -2.86967       -0.14047
O         -0.07337       -0.91322       -1.31333
H          2.22077       -0.52310        2.49074
H          1.40400       -2.10798        2.35602
O         -1.26629        2.46241       -1.34366
C         -1.80144        0.09178        0.53749
C         -0.75257       -0.93499        1.00347
N         -1.59572       -1.98217        1.52543
C         -2.85352       -1.58851        1.69470
N         -3.01215       -0.31261        1.27019
H         -1.96363       -0.03588       -0.54139
N         -3.79523       -2.34671        2.20687
C         -4.29865        0.25091        0.96934
H         -4.75673       -2.03244        2.27818
H          0.62796       -1.20686       -1.92973
C          2.31888        0.18955       -0.07537
O         -4.79265       -0.21918       -0.27070
H         -5.01924       -0.04274        1.73965
H         -4.22738        1.34393        0.96076
C         -4.68989        0.60314       -1.34192
O         -4.31430        1.75286       -1.29703
N         -5.03416       -0.07786       -2.46033
H         -5.57293       -0.93791       -2.37794
O         -5.28943        0.66072       -3.58322
H         -4.51623        0.54935       -4.15626
H          3.35919        0.09200        0.25733
H          2.33855        0.17957       -1.17261
N          0.75088        2.12327       -0.41751
C          1.85078        1.58015        0.37814
C          2.90358        2.67406        0.09234
C          2.62243        3.01353       -1.36958
O          1.27469        2.59293       -1.61811
H          1.61267        1.63403        1.44067
C          4.35630        2.33623        0.40407
H          2.63112        3.53720        0.71750
H          2.70719        4.08848       -1.58091
H          3.27565        2.45307       -2.05613
O          5.18116        3.48057        0.35334
H          4.41979        1.93901        1.42888
H          4.73100        1.55529       -0.27988
H          5.30756        3.72062       -0.57236
O          2.55990       -2.20343        0.18742
S          3.26024       -2.46007       -1.32688
O          4.48530       -1.66201       -1.32822
O          3.45349       -3.90529       -1.28032
O          2.24273       -2.00496       -2.29603
H         -3.56904       -3.28363        2.52661
H          1.06094        0.22986        4.32597
H         -1.24663       -2.91333        1.73108
H          0.98498       -3.25976        0.00052
