62
ZTX_189_solv.log	Energy: -1483140.8953666
C         -1.44918        1.41787       -0.50296
N         -1.41188        1.33018        0.93661
C         -0.63895        0.45449        1.57664
C         -0.46495        2.33964       -1.25799
H         -2.40883        1.87888       -0.76188
N         -0.48859        0.51580        2.88707
H         -0.86738        1.29866        3.41159
H         -2.03598        1.92321        1.47648
N          0.03454       -0.45944        0.85197
C          1.01105       -1.02259       -1.25625
C          2.09419       -0.59258       -0.18372
C          1.39470       -0.89144        1.15549
O          1.20920       -2.31345       -1.70800
O          0.95503       -0.17703       -2.34918
H          1.81629       -0.31332        1.98607
H          1.40910       -1.95629        1.41618
O         -0.88632        2.82563       -2.30258
C         -1.42603        0.02189       -1.12335
C         -0.36567       -0.89348       -0.48537
N         -1.07566       -2.15238       -0.42179
C         -2.39493       -1.98079       -0.52807
N         -2.67139       -0.71369       -0.90181
H         -1.24326        0.10909       -2.20215
N         -3.29700       -2.91372       -0.32982
C         -3.91733       -0.25582       -1.44905
H         -4.27601       -2.62955       -0.22020
H          1.80030       -0.22681       -2.81825
C          2.55567        0.87888       -0.25546
O         -4.67603        0.49946       -0.52146
H         -3.70307        0.43037       -2.27583
H         -4.50357       -1.10227       -1.82788
C         -5.46052       -0.17954        0.33564
O         -5.59563       -1.38862        0.33883
N         -6.03822        0.67481        1.20663
H         -6.08205        1.66812        0.98583
O         -7.06984        0.19613        1.96421
H         -6.70971        0.06692        2.85460
H          3.43514        0.87626        0.39935
H          2.91876        1.08383       -1.27254
N          0.78031        2.57795       -0.81520
C          1.66969        2.04252        0.21341
C          2.46813        3.33340        0.50575
C          2.59797        3.95381       -0.88106
O          1.53891        3.37964       -1.66218
H          1.10858        1.80869        1.11738
C          3.77378        3.17113        1.26469
H          1.80048        3.96536        1.11252
H          3.54761        3.68914       -1.37004
H          2.48477        5.04670       -0.86949
O          3.59864        2.44466        2.46237
H          4.51109        2.62137        0.66174
H          4.19965        4.17182        1.45609
H          2.98283        2.93297        3.02291
O          3.29686       -1.30453       -0.44977
S          3.77859       -2.66010        0.36809
O          4.99624       -3.00499       -0.35340
O          3.95869       -2.25100        1.76294
O          2.65657       -3.61324        0.17490
H         -3.00272       -3.83040       -0.00758
H         -0.01385       -0.22705        3.38998
H         -0.65251       -2.99310       -0.03805
H          1.65795       -2.87328       -1.03544
