62
ZTX_277_solv.log	Energy: -1483142.1874463
C          1.38669        1.20984        0.60688
N          1.48251        1.50194       -0.80264
C          0.88763        0.75971       -1.73500
C          0.25089        1.80799        1.46342
H          2.26439        1.66467        1.07806
N          0.83738        1.16882       -2.98935
H          1.14201        2.10588       -3.23590
H          2.05156        2.29124       -1.09545
N          0.28884       -0.39094       -1.36897
C         -0.81015       -1.58829        0.37651
C         -1.83952       -0.94217       -0.63458
C         -0.99460       -0.83177       -1.90653
O         -0.86105       -2.97409        0.25597
O         -0.97999       -1.18863        1.68675
H         -1.39820       -0.10627       -2.62257
H         -0.90829       -1.81142       -2.39709
O          0.53417        2.03973        2.63475
C          1.45686       -0.29458        0.85553
C          0.60643       -1.11382       -0.13352
N          1.48471       -2.22773       -0.40575
C          2.74097       -1.98555       -0.03234
N          2.80432       -0.83297        0.66737
H          1.12523       -0.50429        1.88077
N          3.76747       -2.76631       -0.27884
C          3.88490       -0.43631        1.52636
H          4.71060       -2.38700       -0.14515
H         -1.90343       -1.41808        1.91518
C         -2.47965        0.40295       -0.23612
O          4.68871        0.58331        0.96017
H          3.46022        0.00164        2.43652
H          4.49892       -1.30464        1.79590
C          5.68158        0.20238        0.13570
O          5.95028       -0.95314       -0.13431
N          6.30276        1.28904       -0.36975
H          6.19475        2.19170        0.08929
O          7.49853        1.09139       -1.00080
H          7.31937        1.18192       -1.94887
H         -3.29051        0.50708       -0.96679
H         -2.95528        0.30339        0.74787
N         -0.98247        2.01563        0.97795
C         -1.70609        1.72964       -0.25931
C         -2.64672        2.95610       -0.26298
C         -2.96291        3.11860        1.22184
O         -1.89187        2.47463        1.92386
H         -1.04056        1.82823       -1.11780
C         -3.87081        2.90023       -1.16915
H         -2.03870        3.81125       -0.59350
H         -3.01352        4.17063        1.53455
H         -3.89765        2.60821        1.50159
O         -4.50189        4.15927       -1.26467
H         -3.55471        2.62012       -2.18572
H         -4.58285        2.13352       -0.81768
H         -4.94728        4.33774       -0.42762
O         -2.86737       -1.88697       -0.91474
S         -4.16764       -2.14549        0.12956
O         -4.49247       -3.52856       -0.20179
O         -3.61084       -1.94994        1.48366
O         -5.17440       -1.15596       -0.25204
H          3.63537       -3.59134       -0.85551
H          0.51254        0.55120       -3.72586
H          1.20057       -3.01567       -0.97932
H         -1.64865       -3.20243       -0.26269
