62
ZTX_178_solv.log	Energy: -1483140.2401400
C         -1.59710        0.79819       -0.70845
N         -1.74190        1.17493        0.67710
C         -1.02528        0.61520        1.65027
C         -0.57212        1.50995       -1.61555
H         -2.54029        1.07690       -1.19131
N         -1.04376        1.10925        2.87438
H         -1.51700        1.98699        3.06604
H         -2.48828        1.82069        0.92235
N         -0.23111       -0.43033        1.34663
C          1.03220       -1.55393       -0.34474
C          1.95215       -0.69465        0.60582
C          1.11314       -0.61299        1.88408
O          1.37109       -2.88470       -0.13869
O          1.10683       -1.19962       -1.67646
H          1.40271        0.22844        2.52507
H          1.19382       -1.54897        2.45454
O         -0.87533        1.59368       -2.80179
C         -1.44096       -0.71280       -0.83920
C         -0.43910       -1.28863        0.18056
N         -1.09523       -2.51897        0.56599
C         -2.38821       -2.51463        0.23384
N         -2.67487       -1.44848       -0.53627
H         -1.10973       -0.95665       -1.85658
N         -3.24796       -3.43844        0.59764
C         -3.89360       -1.32497       -1.29736
H         -4.22927       -3.37840        0.34661
H          2.05591       -1.29222       -1.90670
C          2.34511        0.70919        0.09530
O         -4.98543       -0.96648       -0.47453
H         -3.73706       -0.59359       -2.09888
H         -4.16823       -2.29044       -1.74028
C         -5.21296        0.34477       -0.24449
O         -4.65897        1.25616       -0.82130
N         -6.12437        0.47579        0.74601
H         -6.71113       -0.31743        0.99812
O         -6.70849        1.70317        0.89634
H         -6.30457        2.09647        1.68434
H          3.15400        0.98954        0.77936
H          2.79251        0.62868       -0.90352
N          0.58474        1.99731       -1.14189
C          1.35688        1.88208        0.09242
C          2.05846        3.25727        0.04371
C          2.35038        3.41259       -1.44403
O          1.40381        2.56536       -2.11360
H          0.69660        1.89013        0.95869
C          3.25338        3.44221        0.96255
H          1.29230        3.99474        0.33099
H          2.21972        4.44417       -1.79860
H          3.35818        3.05858       -1.70936
O          2.93863        3.11771        2.30005
H          4.08506        2.78857        0.66102
H          3.61422        4.48184        0.87193
H          2.22611        3.70132        2.58957
O          3.12903       -1.40619        0.94741
S          4.38735       -1.59560       -0.12845
O          5.27464       -0.45460        0.11979
O          4.92532       -2.89032        0.27840
O          3.77788       -1.57864       -1.47661
H         -2.94230       -4.21039        1.18203
H         -0.61840        0.60375        3.64492
H         -0.69365       -3.15717        1.24718
H          0.84607       -3.42053       -0.75002
