62
ZTX_477_solv.log	Energy: -1483137.8903806
C         -1.24792        1.62288        0.83332
N         -0.68575        1.34913        2.13238
C          0.08535        0.28855        2.36587
C         -0.46216        2.46126       -0.19964
H         -2.11278        2.27461        0.99704
N          0.73118        0.16498        3.51086
H          0.73990        0.92950        4.17947
H         -0.91640        1.96842        2.90423
N          0.23766       -0.63272        1.39375
C          0.28264       -0.96248       -0.96852
C          1.73221       -0.81401       -0.37233
C          1.52107       -1.25429        1.08487
O          0.09912       -2.24024       -1.46274
O          0.08358        0.00481       -1.94160
H          2.30645       -0.89388        1.75717
H          1.45852       -2.34748        1.16303
O         -1.14331        3.06779       -1.01910
C         -1.73223        0.33454        0.17960
C         -0.68713       -0.79234        0.27052
N         -1.53201       -1.94663        0.46125
C         -2.76719       -1.61241        0.82592
N         -2.90026       -0.26525        0.83947
H         -1.97538        0.54034       -0.87162
N         -3.71327       -2.46812        1.13970
C         -4.13700        0.42681        1.04017
H         -4.69439       -2.16897        1.10794
H         -0.68686       -0.24581       -2.47192
C          2.38882        0.57078       -0.51502
O         -4.88351        0.57632       -0.15863
H         -4.72831       -0.09017        1.80490
H         -3.92895        1.44205        1.39001
C         -5.87558       -0.29607       -0.39032
O         -6.15070       -1.23935        0.33588
N         -6.57905        0.00115       -1.50021
H         -7.20894       -0.70788       -1.86970
O         -6.10105        0.90412       -2.40777
H         -6.60332        1.72073       -2.26489
H          3.44597        0.37654       -0.30533
H          2.33275        0.86471       -1.57159
N          0.87825        2.55324       -0.17777
C          1.98510        1.75984        0.36563
C          3.04908        2.88037        0.42877
C          2.74042        3.69491       -0.82660
O          1.39742        3.34963       -1.19477
H          1.77294        1.47023        1.39589
C          4.50352        2.47878        0.61145
H          2.78514        3.48428        1.30899
H          2.80162        4.77805       -0.64855
H          3.38775        3.42218       -1.67018
O          5.05579        1.99023       -0.59194
H          5.06196        3.36542        0.96081
H          4.55945        1.72209        1.41450
H          5.90918        1.59210       -0.38740
O          2.52460       -1.69820       -1.15482
S          3.80527       -2.58130       -0.52054
O          3.17384       -3.76902        0.06612
O          4.58237       -2.83300       -1.73009
O          4.43775       -1.69034        0.46219
H         -3.50531       -3.46129        1.09579
H          1.20882       -0.69874        3.74682
H         -1.20503       -2.89737        0.32090
H          0.97253       -2.53414       -1.77780
