62
ZTX_70_solv.log	Energy: -1483142.9191160
C          0.97904       -1.99908       -0.02790
N          0.50397       -2.44585        1.25878
C         -0.13920       -1.64685        2.10847
C          0.07522       -2.09143       -1.27876
H          1.78543       -2.68130       -0.31609
N         -0.72513       -2.14060        3.18404
H         -0.79968       -3.14512        3.31412
H          0.67478       -3.41017        1.53024
N         -0.22669       -0.33104        1.82849
C         -0.29933        1.30346        0.08595
C         -1.74327        0.94479        0.61712
C         -1.44425        0.44799        2.03464
O          0.00053        2.62069        0.42408
O         -0.12392        1.08018       -1.26422
H         -2.25183       -0.17278        2.44076
H         -1.26651        1.29689        2.70964
O          0.65775       -2.26001       -2.34464
C          1.56006       -0.59310        0.07162
C          0.67327        0.35909        0.89926
N          1.66513        1.11866        1.61930
C          2.87855        0.57883        1.54280
N          2.84606       -0.53966        0.78182
H          1.68650       -0.18379       -0.93896
N          3.94575        1.06060        2.13874
C          4.00280       -1.25924        0.34029
H          4.87526        0.79674        1.79400
H         -0.81532        1.60901       -1.71109
C         -2.56411       -0.07446       -0.19607
O          4.58592       -0.69643       -0.82503
H          4.73796       -1.31623        1.15209
H          3.70765       -2.27618        0.06561
C          5.65716        0.10497       -0.66894
O          6.11077        0.45189        0.40640
N          6.17196        0.42550       -1.87302
H          5.62381        0.27863       -2.71847
O          7.07121        1.45235       -1.92119
H          7.94354        1.04228       -2.02233
H         -3.56172        0.01730        0.24858
H         -2.64629        0.26166       -1.23719
N         -1.25993       -1.96978       -1.20891
C         -2.24122       -1.57345       -0.20015
C         -3.42996       -2.43352       -0.69418
C         -3.26184       -2.38774       -2.21074
O         -1.89947       -2.00233       -2.44194
H         -1.95571       -1.95404        0.78006
C         -4.80753       -2.03051       -0.21305
H         -3.23033       -3.45681       -0.34289
H         -3.44812       -3.36142       -2.68492
H         -3.89934       -1.62401       -2.68029
O         -4.79518       -2.02921        1.19890
H         -5.08152       -1.03907       -0.61536
H         -5.54307       -2.75294       -0.61005
H         -5.64640       -1.69761        1.50667
O         -2.49333        2.14673        0.76119
S         -3.24058        2.90258       -0.54960
O         -4.55726        2.27673       -0.65882
O         -3.24081        4.28565       -0.08480
O         -2.34943        2.63924       -1.69779
H          3.85517        1.91629        2.67835
H         -1.09777       -1.52542        3.89983
H          1.46277        2.02576        2.02818
H         -0.81431        3.04380        0.73911
