62
ZTX_59_solv.log	Energy: -1483141.0522189
C          0.94818       -2.00930       -0.07745
N          0.47954       -2.46717        1.20782
C         -0.15144       -1.67233        2.07076
C          0.03024       -2.07358       -1.31967
H          1.74459       -2.69623       -0.38198
N         -0.73416       -2.17265        3.14509
H         -0.81054       -3.17787        3.26802
H          0.64664       -3.43515        1.46817
N         -0.23003       -0.35406        1.80380
C         -0.31735        1.29118        0.06270
C         -1.74957        0.95737        0.63036
C         -1.43042        0.44331        2.03744
O         -0.05175        2.61638        0.38464
O         -0.17241        1.04835       -1.28719
H         -2.24007       -0.16676        2.45536
H         -1.22482        1.28551        2.71281
O          0.60072       -2.22869       -2.39439
C          1.54324       -0.60945        0.03383
C          0.66114        0.33644        0.87025
N          1.66000        1.09345        1.58576
C          2.86532        0.52935        1.52957
N          2.82906       -0.57184        0.74477
H          1.67185       -0.19123       -0.97293
N          3.92632        0.98079        2.15878
C          3.98307       -1.28899        0.29017
H          4.85954        0.70315        1.83614
H         -0.86871        1.59080       -1.71538
C         -2.58803       -0.05939       -0.17610
O          4.58930       -0.68778       -0.84322
H          4.70695       -1.39017        1.10779
H          3.67568       -2.28929       -0.02837
C          5.67282        0.08673       -0.63989
O          6.11779        0.37977        0.45478
N          6.20889        0.44837       -1.82277
H          5.67012        0.34614       -2.68078
O          7.12540        1.46099       -1.81639
H          7.99214        1.04123       -1.92592
H         -3.57538        0.03307        0.29057
H         -2.69412        0.29191       -1.21035
N         -1.30273       -1.94343       -1.23352
C         -2.27249       -1.55967       -0.20867
C         -3.46781       -2.40529       -0.70724
C         -3.32306       -2.31081       -2.22298
O         -1.95400       -1.95244       -2.46181
H         -1.97969       -1.95791        0.76244
C         -4.84062       -2.02636       -0.17803
H         -3.25604       -3.44007       -0.39536
H         -3.54026       -3.26124       -2.72981
H         -3.94952       -1.51503       -2.65338
O         -4.86906       -1.98238        1.23250
H         -5.13493       -1.02869       -0.53614
H         -5.58252       -2.74072       -0.57639
H         -4.65257       -2.86298        1.56318
O         -2.51305        2.13769        0.80530
S         -3.18015        2.95622       -0.48373
O         -4.52862        2.39882       -0.62946
O         -3.13535        4.33607       -0.00859
O         -2.30529        2.67695       -1.64442
H          3.83897        1.82929        2.71030
H         -1.09451       -1.56200        3.87100
H          1.44145        1.92554        2.12584
H          0.77117        2.86986       -0.05752
