62
ZTX_152_solv.log	Energy: -1483136.3523487
C         -1.12967        1.75811        0.50808
N         -0.60048        2.03086        1.82212
C          0.13102        1.14942        2.50128
C         -0.30278        2.07813       -0.75571
H         -1.98806        2.42406        0.37036
N          0.75575        1.50436        3.60895
H          0.77498        2.47763        3.89860
H         -0.80847        2.92705        2.25327
N          0.26703       -0.09986        2.01430
C          0.36075       -1.39488        0.00031
C          1.79876       -1.06669        0.55746
C          1.52534       -0.83869        2.04717
O          0.19798       -2.77153        0.07593
O          0.12388       -0.91445       -1.27091
H          2.31328       -0.25738        2.54010
H          1.40844       -1.80107        2.56475
O         -0.95252        2.34208       -1.76179
C         -1.62661        0.31972        0.41534
C         -0.62926       -0.68267        1.01621
N         -1.52701       -1.63281        1.63474
C         -2.75545       -1.13983        1.77950
N         -2.85354        0.07528        1.18691
H         -1.80540        0.06616       -0.63765
N         -3.73032       -1.75682        2.40208
C         -4.10375        0.60517        0.74172
H         -4.65760       -1.35095        2.46802
H          0.82851       -1.31150       -1.82520
C          2.52888        0.13417       -0.08569
O         -4.50367       -0.13528       -0.40525
H         -4.86003        0.52747        1.53476
H         -3.98293        1.66570        0.48829
C         -5.62639        0.28156       -1.01466
O         -6.27546        1.24321       -0.66397
N         -5.93830       -0.56444       -2.03081
H         -5.20367       -1.14809       -2.42674
O         -6.85793       -0.11342       -2.94044
H         -7.67164       -0.60726       -2.76141
H          3.53819        0.04395        0.33420
H          2.62312       -0.03532       -1.16598
N          1.03943        2.04534       -0.76499
C          2.10786        1.59336        0.12847
C          3.20863        2.58704       -0.31180
C          2.93113        2.75407       -1.80681
O          1.59827        2.26827       -2.01604
H          1.85746        1.82019        1.16569
C          4.65200        2.22131        0.00383
H          2.98651        3.53713        0.19857
H          2.99174        3.80158       -2.13342
H          3.59912        2.13859       -2.42707
O          5.53678        3.23558       -0.42069
H          4.75589        2.01605        1.08480
H          4.94776        1.31130       -0.53861
H          5.34063        4.03374        0.08510
O          2.64367       -2.20052        0.48147
S          3.28808       -2.72811       -0.96325
O          4.59208       -2.06499       -1.05953
O          3.34857       -4.17024       -0.74452
O          2.33746       -2.30396       -2.01488
H         -3.56179       -2.65557        2.84370
H          1.18357        0.80726        4.20961
H         -1.19729       -2.47603        2.09706
H         -0.64512       -2.99207       -0.34528
