62
ZTX_163_solv.log	Energy: -1483136.6349977
C         -1.61746        1.14532        0.89012
N         -1.14298        1.15585        2.25055
C         -0.27649        0.25609        2.71068
C         -0.85244        1.90393       -0.21752
H         -2.57685        1.67562        0.88359
N          0.27028        0.39863        3.90406
H          0.11729        1.24803        4.43924
H         -1.51270        1.85337        2.89034
N          0.07727       -0.77783        1.91999
C          0.40907       -1.39353       -0.38184
C          1.76828       -1.02004        0.33206
C          1.44762       -1.25726        1.81160
O          0.36809       -2.71220       -0.77758
O          0.20228       -0.52616       -1.44511
H          2.12085       -0.71245        2.48333
H          1.50868       -2.33094        2.03641
O         -1.52964        2.27982       -1.16848
C         -1.85888       -0.28413        0.42166
C         -0.69058       -1.22045        0.75492
N         -1.39369       -2.44988        1.02918
C         -2.69559       -2.25338        1.22641
N         -3.00465       -0.94478        1.06086
H         -2.02017       -0.27555       -0.66513
N         -3.53710       -3.20923        1.54510
C         -4.33668       -0.44355        0.83919
H         -4.53006       -3.03602        1.65506
H         -0.45883       -0.91507       -2.03595
C          2.29394        0.39974        0.05317
O         -4.63111       -0.42807       -0.54369
H         -5.06840       -1.08425        1.34124
H         -4.42227        0.56816        1.25217
C         -4.62983        0.77748       -1.16983
O         -4.71062        1.84730       -0.60626
N         -4.49062        0.59348       -2.49712
H         -4.58562       -0.32557       -2.92270
O         -4.68393        1.66586       -3.31806
H         -3.80368        2.04273       -3.47406
H          3.30498        0.37882        0.47841
H          2.40942        0.53237       -1.02951
N          0.46957        2.13496       -0.15175
C          1.60838        1.64803        0.63152
C          2.50189        2.90551        0.53054
C          2.19863        3.41626       -0.87923
O          0.97985        2.77278       -1.27537
H          1.32299        1.53102        1.67795
C          3.98715        2.74140        0.81834
H          2.10118        3.62483        1.26174
H          2.06322        4.50632       -0.91404
H          2.96977        3.12019       -1.60545
O          4.65564        3.98209        0.74217
H          4.12398        2.26473        1.80612
H          4.45918        2.09243        0.06628
H          4.29136        4.55854        1.42527
O          2.79411       -1.96716        0.05285
S          3.57013       -2.16673       -1.40274
O          4.33683       -0.94790       -1.66794
O          4.37066       -3.34976       -1.10715
O          2.47470       -2.39363       -2.37441
H         -3.19463       -4.15576        1.67855
H          0.81907       -0.34842        4.31676
H         -0.93036       -3.35000        1.10740
H          1.07625       -2.81628       -1.45383
