62
ZTX_22_solv.log	Energy: -1483143.5669003
C          1.56388        0.88174        1.02912
N          1.81733        1.28730       -0.33187
C          1.24784        0.66855       -1.36685
C          0.40618        1.50797        1.83251
H          2.42400        1.22278        1.61482
N          1.40044        1.13621       -2.59207
H          1.86993        2.02361       -2.74489
H          2.65585        1.85517       -0.50730
N          0.46378       -0.40312       -1.13425
C         -0.91011       -1.56391        0.43972
C         -1.76426       -0.76633       -0.62174
C         -0.80200       -0.66660       -1.80949
O         -1.17886       -2.91237        0.24733
O         -1.12345       -1.17208        1.74630
H         -1.06087        0.14713       -2.49775
H         -0.77370       -1.61608       -2.36280
O          0.56499        1.56066        3.04730
C          1.49500       -0.64078        1.13138
C          0.58939       -1.25253        0.05038
N          1.32027       -2.46214       -0.27576
C          2.61687       -2.32897        0.03004
N          2.78743       -1.27979        0.85402
H          1.14316       -0.92858        2.13062
N          3.56505       -3.13591       -0.38913
C          4.01407       -0.85054        1.45907
H          4.53766       -2.84050       -0.31727
H         -2.08587       -1.29105        1.89045
C         -2.27011        0.62778       -0.19162
O          4.53170        0.28693        0.78838
H          3.81574       -0.52047        2.48462
H          4.74270       -1.67018        1.48042
C          5.14111        0.07497       -0.38814
O          5.54972       -1.00533       -0.76669
N          5.30354        1.22401       -1.08967
H          5.58547        1.13876       -2.06404
O          4.49330        2.30003       -0.83364
H          4.99291        2.90233       -0.26051
H         -2.98402        0.87016       -0.98724
H         -2.84790        0.54239        0.73740
N         -0.70544        1.97098        1.23839
C         -1.34230        1.84220       -0.07107
C         -2.11644        3.18237       -0.07883
C         -2.51237        3.34409        1.38809
O         -1.66061        2.45535        2.12437
H         -0.59649        1.89741       -0.86354
C         -3.27624        3.28772       -1.04622
H         -1.38063        3.95762       -0.33910
H         -2.36843        4.37147        1.75113
H         -3.54855        3.02983        1.58111
O         -2.79037        3.02345       -2.34560
H         -4.07643        2.58101       -0.76411
H         -3.70406        4.30384       -0.97414
H         -3.54422        2.97773       -2.94470
O         -2.86773       -1.53670       -1.06336
S         -4.22010       -1.75941       -0.11531
O         -5.13096       -0.67361       -0.49258
O         -4.64986       -3.09152       -0.53076
O         -3.75589       -1.67162        1.28714
H          3.33136       -3.85779       -1.06459
H          1.08850        0.59936       -3.39461
H          0.99663       -3.09260       -1.00467
H         -0.69676       -3.40757        0.92461
