62
ZTX_298_solv.log	Energy: -1483139.5082632
C         -1.58047        0.84069       -0.79596
N         -1.76704        1.18757        0.59086
C         -1.14298        0.53860        1.57229
C         -0.46581        1.50561       -1.62918
H         -2.47918        1.19223       -1.31363
N         -1.22654        0.96039        2.82043
H         -1.67544        1.84636        3.03202
H         -2.53640        1.81180        0.82274
N         -0.37429       -0.52240        1.25860
C          0.96642       -1.51466       -0.46644
C          1.84648       -0.78250        0.62552
C          0.92797       -0.78205        1.85167
O          1.19643       -2.87150       -0.50298
O          1.18663       -0.91407       -1.69884
H          1.19899       -0.01163        2.58311
H          0.95404       -1.76685        2.33894
O         -0.68092        1.58468       -2.83407
C         -1.50545       -0.67277       -0.96272
C         -0.52617       -1.31346        0.03571
N         -1.19285       -2.56248        0.32394
C         -2.49072       -2.49780        0.02590
N         -2.76326       -1.36574       -0.65512
H         -1.20849       -0.90288       -1.99440
N         -3.37168       -3.41925        0.34193
C         -4.01113       -1.13415       -1.33998
H         -4.35169       -3.31928        0.09958
H          0.87340       -1.51252       -2.39214
C          2.33401        0.62975        0.25147
O         -5.04387       -0.79332       -0.43654
H         -3.86304       -0.35182       -2.09323
H         -4.35462       -2.04866       -1.84027
C         -5.18027        0.50133       -0.07770
O         -4.58527        1.42783       -0.58621
N         -6.05058        0.59339        0.95310
H         -6.67919       -0.18293        1.15153
O         -6.55011        1.83418        1.23693
H         -6.09904        2.12606        2.04323
H          3.06584        0.85588        1.03686
H          2.89077        0.58023       -0.69203
N          0.66482        1.97780       -1.07720
C          1.37523        1.83051        0.19529
C          2.12468        3.18105        0.18773
C          2.44809        3.37133       -1.29484
O          1.56505        2.49154       -2.00353
H          0.66776        1.85418        1.02615
C          3.32080        3.31786        1.10868
H          1.39134        3.94313        0.49076
H          2.28323        4.40327       -1.63483
H          3.47594        3.06508       -1.53950
O          3.73231        4.66775        1.05676
H          3.03084        3.02171        2.13420
H          4.13683        2.64871        0.78431
H          4.55803        4.74545        1.54743
O          2.95746       -1.57539        1.03056
S          4.30557       -1.91228        0.11947
O          5.00162       -0.64867       -0.13063
O          4.99590       -2.83372        1.01493
O          3.76947       -2.53917       -1.11160
H         -3.08253       -4.23528        0.87223
H         -0.87250        0.39445        3.58470
H         -0.78240       -3.27928        0.91476
H          2.13663       -2.98305       -0.77271
