41
GTX_ketone_0_solv.log	Energy: -1065946.7421284
C         -2.38849        1.40934       -0.74660
N         -2.37985        1.65674        0.68652
C         -1.58745        1.01464        1.54373
C         -1.37591        2.24082       -1.52704
H         -3.36733        1.73951       -1.12006
N         -1.35459        1.52387        2.74218
H         -1.66040        2.46639        2.96120
H         -0.93521        0.96854        3.47943
H         -2.81311        2.51708        1.01145
N         -1.05328       -0.17721        1.19948
C          0.05962       -1.12997       -0.62275
C          1.06035       -0.74773        0.44884
C          0.22205       -0.68399        1.72406
O          0.27812       -1.60766       -1.69855
O          2.16218       -1.60766        0.48737
H          1.36555        0.28614        0.22959
H          0.65622       -0.00155        2.46038
H          0.09085       -1.67686        2.17733
H         -1.56071        2.08655       -2.59845
H         -1.52190        3.30153       -1.28825
O         -0.02349        1.87013       -1.29423
C          0.73597        2.68557       -0.52326
O          0.27042        3.58449        0.15467
H          2.36027        1.54120       -1.10970
N          2.03874        2.37729       -0.62023
H          2.67071        2.80284        0.04764
C         -2.29763       -0.08739       -1.01525
C         -1.35361       -0.84626       -0.06231
N         -2.07281       -2.08848        0.13927
C         -3.36406       -1.95370       -0.20546
N         -3.56165       -0.77285       -0.78868
H         -1.95726       -0.25649       -2.04845
N         -4.28632       -2.86493        0.00411
H         -1.74141       -2.81658        0.76674
H         -4.40153       -0.54887       -1.31430
H         -5.23793       -2.71582       -0.31527
H         -4.05417       -3.72928        0.48223
S          3.60268       -0.90725       -0.00324
O          4.48075       -2.07117       -0.04056
O          3.29165       -0.31041       -1.31584
O          3.90134        0.08761        1.03315
