41
GTX_ketone_24_solv.log	Energy: -1065945.9335197
C          2.27400        0.69544       -0.11492
N          2.16207        0.23565        1.26662
C          1.27063       -0.72406        1.53669
C          2.78069       -0.40836       -1.04795
H          2.99286        1.52275       -0.12230
N          1.47981       -1.62109        2.47977
H          2.38269       -1.66956        2.94211
H          0.73300       -2.22431        2.80809
H          3.00348        0.26240        1.83677
N          0.14447       -0.75343        0.79644
C         -1.10896       -0.33042       -1.09963
C         -1.68967       -1.58770       -0.44042
C         -0.54926       -2.01533        0.46258
O         -1.21699        0.02887       -2.23502
O         -2.77324       -1.25997        0.41398
H         -1.96824       -2.34141       -1.18776
H          0.14128       -2.69041       -0.06328
H         -0.94627       -2.51390        1.35543
H          2.03333       -1.20660       -1.15971
H          2.98472        0.02162       -2.03816
O          3.93226       -1.04102       -0.52036
C          5.10727       -0.37939       -0.62954
O          5.21491        0.69957       -1.18821
H          7.04066       -0.68434       -0.08759
N          6.10258       -1.06244       -0.05072
H          5.93877       -1.96804        0.37106
C          0.92626        1.21855       -0.59365
C         -0.25166        0.37958       -0.02673
N         -1.05413        1.36117        0.68796
C         -0.53098        2.59442        0.54279
N          0.63009        2.54754       -0.09648
H          0.89117        1.20657       -1.69314
N         -1.10629        3.68699        0.99396
H         -2.07673        1.24635        0.72108
H          1.21759        3.35613       -0.27285
H         -0.68168        4.59472        0.83635
H         -1.98783        3.63086        1.49311
S         -4.11248       -0.48909       -0.21890
O         -5.14238       -0.85310        0.74596
O         -3.71544        0.93488       -0.18413
O         -4.27151       -1.02602       -1.57162
