41
GTX_ketone_3_solv.log	Energy: -1065946.7435277
C         -2.38868        1.40921       -0.74652
N         -2.37998        1.65652        0.68663
C         -1.58745        1.01446        1.54376
C         -1.37623        2.24089       -1.52692
H         -3.36759        1.73929       -1.11988
N         -1.35459        1.52370        2.74220
H         -1.66046        2.46620        2.96122
H         -0.93516        0.96840        3.47945
H         -2.81339        2.51674        1.01163
N         -1.05311       -0.17725        1.19935
C          0.05968       -1.12997       -0.62296
C          1.06045       -0.74779        0.44863
C          0.22218       -0.68411        1.72388
O          0.27818       -1.60747       -1.69883
O          2.16227       -1.60771        0.48708
H          1.36562        0.28609        0.22938
H          0.65640       -0.00176        2.46026
H          0.09095       -1.67702        2.17706
H         -1.56102        2.08669       -2.59834
H         -1.52232        3.30156       -1.28805
O         -0.02377        1.87031       -1.29412
C          0.73571        2.68577       -0.52318
O          0.27019        3.58472        0.15475
H          2.67046        2.80313        0.04754
N          2.03841        2.37741       -0.62014
H          2.35990        1.54145       -1.10982
C         -2.29766       -0.08750       -1.01528
C         -1.35352       -0.84633       -0.06242
N         -2.07267       -2.08856        0.13922
C         -3.36395       -1.95385       -0.20539
N         -3.56161       -0.77305       -0.78866
H         -1.95735       -0.25648       -2.04852
N         -4.28618       -2.86505        0.00438
H         -1.74110       -2.81677        0.76647
H         -4.40157       -0.54904       -1.31413
H         -5.23774       -2.71614       -0.31523
H         -4.05393       -3.72944        0.48237
S          3.60281       -0.90713       -0.00321
O          4.48103       -2.07096       -0.04036
O          3.29197       -0.31032       -1.31585
O          3.90115        0.08775        1.03326
