41
GTX_ketone_12_solv.log	Energy: -1065952.2570518
C          2.82424        0.95163       -0.28912
N          2.67312        0.74373        1.14562
C          1.64137        0.05477        1.63679
C          3.36980       -0.25100       -1.05315
H          3.58291        1.73532       -0.41234
N          1.68717       -0.49233        2.83714
H          2.57055       -0.55646        3.33298
H          0.85519       -0.87416        3.27394
H          3.49840        0.83647        1.73087
N          0.53538       -0.04668        0.87764
C         -0.61511       -0.01358       -1.13594
C         -1.04465       -1.25729       -0.35739
C         -0.51901       -1.04099        1.06912
O         -0.87121        0.24968       -2.27604
O         -2.40251       -1.58276       -0.50118
H         -0.49166       -2.09159       -0.81586
H         -0.09213       -1.96348        1.48151
H         -1.30120       -0.67501        1.74912
H          3.67082        0.09185       -2.05144
H          4.24975       -0.65023       -0.53276
O          2.41407       -1.28262       -1.27227
C          2.44537       -2.36475       -0.46333
O          3.07615       -2.40403        0.57886
H          1.60926       -4.21839       -0.42523
N          1.69225       -3.35911       -0.95414
H          1.25449       -3.28074       -1.86423
C          1.51721        1.48876       -0.87566
C          0.25959        0.86523       -0.21625
N         -0.50014        2.02707        0.20442
C          0.14546        3.16545       -0.07558
N          1.33420        2.90539       -0.61237
H          1.49598        1.30009       -1.95884
N         -0.33296        4.36825        0.16143
H         -1.49916        1.94381        0.40731
H          1.97862        3.61959       -0.93491
H          0.19978        5.19210       -0.09597
H         -1.24192        4.47975        0.59717
S         -3.55493       -0.56388        0.15246
O         -3.71857       -1.00993        1.53857
O         -2.95494        0.78097        0.02921
O         -4.69668       -0.81135       -0.71912
