41
GTX_ketone_10_solv.log	Energy: -1065944.7920360
C          2.36007        0.05588       -0.27660
N          2.28101        0.08048        1.17757
C          1.08711        0.08426        1.77386
C          1.89101       -1.27886       -0.86528
H          3.41282        0.20510       -0.54352
N          0.92455       -0.38703        2.99567
H          1.68564       -0.87799        3.45489
H          0.07535       -0.20677        3.52109
H          3.07373       -0.27442        1.70475
N          0.04284        0.58660        1.08565
C         -1.04485        1.06305       -0.92073
C         -1.84460        0.02872       -0.15810
C         -1.35262        0.18582        1.28347
O         -1.31758        1.57137       -1.96942
O         -3.21199        0.23206       -0.35933
H         -1.51894       -0.95506       -0.54969
H         -1.40392       -0.75095        1.84741
H         -1.93029        0.96347        1.80471
H          0.81416       -1.42807       -0.70499
H          2.09048       -1.28507       -1.94551
O          2.52454       -2.37016       -0.22440
C          3.79493       -2.65330       -0.59339
O          4.38751       -2.04210       -1.46688
H          5.23061       -3.99190       -0.06846
N          4.28876       -3.67294        0.11988
H          3.72810       -4.13831        0.82274
C          1.55579        1.21475       -0.85316
C          0.21247        1.41993       -0.09354
N          0.23903        2.83496        0.20503
C          1.41339        3.39513       -0.11625
N          2.21441        2.49557       -0.67828
H          1.35842        1.03278       -1.91955
N          1.71673        4.65634        0.09771
H         -0.50795        3.31809        0.69525
H          3.11520        2.71681       -1.08976
H          2.61776        5.02360       -0.18971
H          1.04461        5.27763        0.53507
S         -4.18825       -1.11495       -0.15684
O         -5.49440       -0.55267       -0.48917
O         -3.66424       -2.09916       -1.11257
O         -4.00651       -1.49435        1.25058
