41
GTX_ketone_14_solv.log	Energy: -1065954.4688595
C          2.90880        0.83643        0.02188
N          2.55989        0.63686        1.42410
C          1.53782       -0.17098        1.73800
C          3.68854       -0.36001       -0.53750
H          3.61055        1.67901       -0.01950
N          1.50500       -0.83187        2.87887
H          2.32155       -0.84263        3.48223
H          0.66099       -1.29362        3.20142
H          3.31341        0.70682        2.10330
N          0.53139       -0.26508        0.85082
C         -0.62383        0.05241       -1.13981
C         -1.13768       -1.23754       -0.49582
C         -0.56548       -1.23224        0.92888
O         -0.91550        0.48681       -2.21718
O         -2.52463       -1.42018       -0.62327
H         -0.68737       -2.05544       -1.07735
H         -0.17262       -2.21797        1.20859
H         -1.31719       -0.92498        1.67013
H          3.77976       -0.27348       -1.62861
H          4.69205       -0.34827       -0.09618
O          3.15361       -1.62349       -0.16955
C          2.17001       -2.14767       -0.92500
O          1.65864       -1.55002       -1.86101
H          2.29221       -3.79891        0.28620
N          1.83154       -3.37248       -0.50863
H          1.07971       -3.86000       -0.98056
C          1.67030        1.27115       -0.78182
C          0.34678        0.74883       -0.16219
N         -0.27954        1.95715        0.35230
C          0.36029        3.04858       -0.09656
N          1.47297        2.71004       -0.73880
H          1.77023        0.93105       -1.81855
N         -0.06176        4.28075        0.08780
H         -1.28322        1.93745        0.55233
H          2.17182        3.37749       -1.04865
H          0.46988        5.06535       -0.27371
H         -0.92524        4.45573        0.59026
S         -3.56752       -0.39026        0.17946
O         -3.76956       -1.00281        1.49499
O         -2.83928        0.89421        0.23061
O         -4.73151       -0.40388       -0.69812
