41
GTX_ketone_2_solv.log	Energy: -1065946.7445254
C         -2.38835        1.40945       -0.74666
N         -2.37977        1.65674        0.68649
C         -1.58741        1.01454        1.54367
C         -1.37568        2.24083       -1.52709
H         -3.36714        1.73976       -1.12014
N         -1.35459        1.52359        2.74220
H         -1.66071        2.46597        2.96138
H         -0.93552        0.96806        3.47947
H         -2.81326        2.51692        1.01152
N         -1.05314       -0.17720        1.19923
C          0.05947       -1.13022       -0.62303
C          1.06032       -0.74799        0.44844
C          0.22214       -0.68410        1.72375
O          0.27786       -1.60798       -1.69880
O          2.16214       -1.60789        0.48686
H          1.36546        0.28587        0.22907
H          0.65645       -0.00166        2.45999
H          0.09087       -1.67694        2.17706
H         -1.56039        2.08641       -2.59849
H         -1.52166        3.30158       -1.28847
O         -0.02327        1.87018       -1.29415
C          0.73616        2.68553       -0.52306
O          0.27061        3.58446        0.15485
H          2.67090        2.80264        0.04795
N          2.03889        2.37708       -0.61988
H          2.36038        1.54112       -1.10959
C         -2.29768       -0.08729       -1.01537
C         -1.35367       -0.84627       -0.06250
N         -2.07304       -2.08835        0.13923
C         -3.36432       -1.95338       -0.20531
N         -3.56177       -0.77258       -0.78867
H         -1.95746       -0.25639       -2.04861
N         -4.28673       -2.86439        0.00456
H         -1.74162       -2.81656        0.76657
H         -4.40173       -0.54843       -1.31408
H         -5.23831       -2.71522       -0.31489
H         -4.05467       -3.72877        0.48266
S          3.60273       -0.90721       -0.00314
O          3.29208       -0.31027       -1.31577
O          3.90087        0.08756        1.03348
O          4.48097       -2.07102       -0.04027
