41
GTX_ketone_26_solv.log	Energy: -1065947.9583421
C          2.22579        1.33057       -0.46915
N          2.33525        0.95391        0.93599
C          1.59922       -0.05777        1.40165
C          2.79582        0.26897       -1.41308
H          2.79923        2.25652       -0.59631
N          1.96999       -0.76289        2.45209
H          2.91593       -0.68322        2.81204
H          1.34053       -1.43464        2.87751
H          3.18833        1.19204        1.43440
N          0.44461       -0.34198        0.76447
C         -0.94146       -0.34828       -1.07999
C         -1.26889       -1.60757       -0.26551
C         -0.04479       -1.72958        0.62167
O         -1.13761       -0.14668       -2.24224
O         -2.37000       -1.38480        0.60053
H         -1.42979       -2.47529       -0.91781
H          0.73242       -2.34414        0.14630
H         -0.32455       -2.16861        1.58740
H          2.17511       -0.63856       -1.42228
H          2.82953        0.68104       -2.42931
O          4.12405       -0.04924       -1.04422
C          4.33477       -1.18637       -0.34187
O          3.45567       -1.99104       -0.08053
H          5.91949       -2.13101        0.50644
N          5.61946       -1.29814        0.01585
H          6.30173       -0.60765       -0.27220
C          0.76963        1.60758       -0.82086
C         -0.19701        0.61328       -0.12578
N         -1.14590        1.48565        0.54994
C         -0.83611        2.77877        0.33901
N          0.30153        2.89132       -0.33513
H          0.63482        1.54100       -1.91103
N         -1.57100        3.78183        0.76596
H         -2.13159        1.20151        0.62967
H          0.72708        3.77592       -0.59250
H         -1.31283        4.73894        0.54967
H         -2.41105        3.60433        1.30624
S         -3.84410       -0.93946       -0.04409
O         -4.75891       -1.34200        1.01670
O         -3.70000        0.52311       -0.20647
O         -3.95672       -1.66714       -1.30923
