41
GTX_ketone_21_solv.log	Energy: -1065950.0734444
C          2.41867        0.60594        0.51613
N          1.88987        1.43241        1.58810
C          0.64792        1.23389        2.03685
C          2.70522       -0.81498        1.02300
H          3.36336        1.05701        0.19065
N          0.28618        1.61410        3.24902
H          0.98268        1.96187        3.90059
H         -0.69122        1.65346        3.51943
H          2.54007        1.94067        2.18053
N         -0.22820        0.62243        1.21856
C         -0.70562       -0.83515       -0.52701
C         -1.49185       -1.27870        0.70574
C         -1.42461       -0.08690        1.67046
O         -0.58212       -1.43079       -1.55900
O         -2.76510       -1.78817        0.40826
H         -0.92285       -2.12114        1.13128
H         -1.29919       -0.41602        2.70848
H         -2.31749        0.54975        1.60701
H          3.42469       -0.76190        1.85133
H          1.78544       -1.29895        1.37960
O          3.19190       -1.64815       -0.01295
C          4.49252       -1.51310       -0.36243
O          5.25263       -0.73425        0.18785
H          4.12500       -2.97643       -1.75400
N          4.80730       -2.33302       -1.37257
H          5.76192       -2.35134       -1.70824
C          1.45795        0.60950       -0.66573
C         -0.02041        0.51230       -0.21772
N         -0.65147        1.57926       -0.96378
C          0.24504        2.30373       -1.64503
N          1.47701        1.85566       -1.41244
H          1.69673       -0.23357       -1.32971
N         -0.05968        3.31811       -2.42516
H         -1.66379        1.60780       -1.08884
H          2.29785        2.19205       -1.90527
H          0.66712        3.81442       -2.92965
H         -1.02395        3.61835       -2.51979
S         -3.91399       -0.74268       -0.21515
O         -4.60727       -0.20201        0.95657
O         -3.11866        0.26273       -0.95037
O         -4.70871       -1.63375       -1.05144
