41
GTX_ketone_25_solv.log	Energy: -1065950.8423192
C          2.75411        1.07932       -0.41366
N          2.71581        0.90697        1.03279
C          1.77145        0.16839        1.61837
C          3.32480       -0.11050       -1.17846
H          3.44482        1.90928       -0.61033
N          1.94503       -0.33964        2.82457
H          2.86446       -0.32821        3.25444
H          1.17422       -0.75794        3.33386
H          3.57214        1.07435        1.55275
N          0.61961       -0.02613        0.95137
C         -0.64785       -0.15804       -0.98564
C         -0.97769       -1.37575       -0.12235
C         -0.34719       -1.08518        1.24634
O         -0.98230        0.03810       -2.11903
O         -2.32972       -1.75863       -0.10074
H         -0.43952       -2.21352       -0.59240
H          0.17863       -1.96392        1.64029
H         -1.10336       -0.75315        1.97021
H          3.55704        0.22112       -2.19860
H          4.24801       -0.45454       -0.69507
O          2.40777       -1.18974       -1.32355
C          2.53957       -2.25727       -0.50556
O          3.23776       -2.25392        0.49323
H          1.79385       -4.14651       -0.39588
N          1.79904       -3.28927       -0.93461
H          1.30563       -3.24367       -1.81819
C          1.37557        1.49964       -0.92527
C          0.21483        0.81536       -0.15790
N         -0.60656        1.93606        0.25850
C         -0.06569        3.10477       -0.10319
N          1.10400        2.90932       -0.70600
H          1.29369        1.26363       -1.99621
N         -0.61708        4.27834        0.12173
H         -1.57458        1.78262        0.55911
H          1.67825        3.65368       -1.08725
H         -0.16695        5.12718       -0.20348
H         -1.50620        4.34101        0.60575
S         -3.53634       -0.61676        0.10401
O         -4.51973       -1.36147        0.88144
O         -2.87896        0.48705        0.83792
O         -3.94844       -0.25606       -1.25148
