41
GTX_ketone_23_solv.log	Energy: -1065954.4694306
C          2.90909        0.83545        0.02159
N          2.56018        0.63649        1.42390
C          1.53774       -0.17073        1.73814
C          3.68832       -0.36145       -0.53746
H          3.61126        1.67768       -0.02008
N          1.50459       -0.83113        2.87929
H          2.32117       -0.84207        3.48262
H          0.66041       -1.29246        3.20201
H          3.31371        0.70649        2.10307
N          0.53127       -0.26478        0.85100
C         -0.62374        0.05222       -1.13985
C         -1.13782       -1.23745       -0.49545
C         -0.56557       -1.23193        0.92920
O         -0.91540        0.48635       -2.21733
O         -2.52481       -1.41989       -0.62277
H         -0.68773       -2.05563       -1.07677
H         -0.17263       -2.21760        1.20901
H         -1.31730       -0.92467        1.67045
H          3.77970       -0.27512       -1.62858
H          4.69180       -0.35002       -0.09605
O          3.15286       -1.62467       -0.16936
C          2.16898       -2.14830       -0.92479
O          1.65801       -1.55040       -1.86088
H          2.28992       -3.79952        0.28650
N          1.82959       -3.37281       -0.50835
H          1.07772       -3.85999       -0.98056
C          1.67072        1.27060       -0.78212
C          0.34697        0.74883       -0.16242
N         -0.27909        1.95748        0.35156
C          0.36147        3.04862       -0.09695
N          1.47406        2.70957       -0.73910
H          1.77053        0.93049       -1.81886
N         -0.05981        4.28104        0.08764
H         -1.28278        1.93820        0.55153
H          2.17343        3.37667       -1.04852
H          0.47237        5.06536       -0.27366
H         -0.92325        4.45645        0.59001
S         -3.56760       -0.38950        0.17947
O         -2.83900        0.89475        0.23063
O         -4.73136       -0.40289       -0.69842
O         -3.77020       -1.00181        1.49505
