41
GTX_ketone_19_solv.log	Energy: -1065950.7999748
C          2.78325        1.03990       -0.12004
N          2.54482        1.17115        1.30955
C          1.46066        0.66759        1.89960
C          3.36299       -0.30558       -0.52351
H          3.54673        1.78326       -0.38020
N          1.45389        0.42577        3.20031
H          2.30980        0.52316        3.73701
H          0.58937        0.25064        3.70021
H          3.33632        1.40650        1.90115
N          0.37212        0.41849        1.15240
C         -0.45288       -0.34499       -0.87794
C         -0.95696       -1.26724        0.23405
C         -0.70713       -0.49090        1.53360
O         -0.52799       -0.53064       -2.05894
O         -2.24832       -1.77124        0.01627
H         -0.29032       -2.14301        0.21958
H         -0.38166       -1.15812        2.33881
H         -1.59285        0.06419        1.87048
H          3.81341       -0.21472       -1.52370
H          4.14219       -0.60432        0.18926
O          2.32653       -1.27896       -0.57245
C          2.71092       -2.57470       -0.59723
O          3.82291       -2.94149       -0.26453
H          0.89142       -2.98716       -1.45032
N          1.71497       -3.37655       -1.00618
H          1.90446       -4.36707       -1.09922
C          1.51523        1.39242       -0.89226
C          0.22003        0.88030       -0.21982
N         -0.65875        2.02736       -0.31979
C         -0.00398        3.11501       -0.73902
N          1.27995        2.82658       -0.95222
H          1.57512        0.97670       -1.90976
N         -0.55506        4.29772       -0.90674
H         -1.67025        1.93000       -0.20844
H          1.92598        3.46743       -1.40179
H         -0.00651        5.07479       -1.25904
H         -1.53490        4.44019       -0.68590
S         -3.54650       -0.71983        0.08234
O         -3.00035        0.55647       -0.42460
O         -4.50230       -1.37464       -0.80193
O         -3.92933       -0.67573        1.49600
