41
GTX_ketone_15_solv.log	Energy: -1065944.6633526
C         -2.44449        1.07705        0.84013
N         -2.70614       -0.00355        1.77744
C         -1.80045       -0.97028        1.93990
C         -1.32675        1.97848        1.37909
H         -3.36393        1.66747        0.74825
N         -1.74588       -1.68837        3.04555
H         -2.30696       -1.42870        3.85089
H         -1.18477       -2.53263        3.09274
H         -3.41466        0.12212        2.49448
N         -0.92936       -1.19071        0.93555
C          0.27809       -0.45541       -0.92095
C          1.24460       -0.81935        0.18941
C          0.42422       -1.72201        1.11020
O          0.53750       -0.06379       -2.02229
O          2.40451       -1.43482       -0.29481
H          1.46294        0.12892        0.71318
H          0.73828       -1.64002        2.15666
H          0.49343       -2.77066        0.78481
H         -1.64950        2.41003        2.33580
H         -0.40107        1.40850        1.54218
O         -1.09320        3.03768        0.47108
C          0.13006        3.13991       -0.10186
O          1.07197        2.42254        0.18705
H          1.01819        4.32413       -1.49118
N          0.15090        4.12169       -1.01041
H         -0.67092        4.68568       -1.18795
C         -2.12032        0.49327       -0.53073
C         -1.16165       -0.72197       -0.42184
N         -1.81489       -1.70619       -1.25876
C         -3.04083       -1.30989       -1.62956
N         -3.28177       -0.07909       -1.18706
H         -1.67308        1.26685       -1.17090
N         -3.87547       -2.03985       -2.33617
H         -1.45799       -2.64731       -1.39514
H         -4.08660        0.47235       -1.46683
H         -4.78639       -1.67292       -2.59096
H         -3.62290       -2.98089       -2.61908
S          3.82462       -0.56510       -0.10763
O          4.79758       -1.52796       -0.61845
O          3.63449        0.63687       -0.92771
O          3.90156       -0.29648        1.33505
