41
GTX_ketone_27_solv.log	Energy: -1065943.7920683
C         -2.66048        1.29633       -0.35276
N         -2.74374        1.16002        1.09278
C         -1.77929        0.56005        1.79538
C         -1.73026        2.41782       -0.78172
H         -3.65865        1.57258       -0.71459
N         -1.61479        0.83327        3.07820
H         -2.13420        1.59320        3.50606
H         -1.04376        0.24278        3.67349
H         -3.36434        1.78960        1.59419
N         -0.98930       -0.34208        1.18432
C          0.15745       -0.88819       -0.77420
C          1.17582       -0.60250        0.31228
C          0.37583       -0.66761        1.61382
O          0.37427       -1.14896       -1.92317
O          2.23440       -1.52290        0.26713
H          1.52083        0.43565        0.15003
H          0.73404        0.06268        2.34738
H          0.42574       -1.67738        2.04682
H         -1.76950        2.52129       -1.87750
H         -2.06106        3.35710       -0.31253
O         -0.41564        2.09130       -0.35649
C          0.62011        2.93711       -0.52021
O          1.70934        2.60130       -0.08331
H          1.16121        4.72369       -1.28936
N          0.38027        4.09316       -1.15315
H         -0.51963        4.35153       -1.53777
C         -2.30652       -0.05269       -0.97159
C         -1.25799       -0.84551       -0.15209
N         -1.82813       -2.17981       -0.14009
C         -3.09837       -2.17741       -0.56824
N         -3.44064       -0.96119       -0.98521
H         -1.92650        0.09472       -1.99348
N         -3.88152       -3.23311       -0.57351
H         -1.40089       -2.96063        0.35050
H         -4.29353       -0.76609       -1.50012
H         -4.82841       -3.16883       -0.93200
H         -3.54697       -4.12027       -0.21203
S          3.74901       -0.86773       -0.00904
O          3.64071       -0.21857       -1.32123
O          3.95336        0.06837        1.10470
O          4.57464       -2.07358        0.02713
