41
GTX_ketone_16_solv.log	Energy: -1065947.3821064
C          2.55655       -0.42281       -0.75447
N          2.56071       -0.70151        0.67471
C          1.45752       -0.51416        1.40094
C          1.73117       -1.43371       -1.55887
H          3.59921       -0.47995       -1.08937
N          1.27823       -1.12832        2.55447
H          1.86923       -1.91385        2.80850
H          0.50948       -0.87900        3.16738
H          3.28263       -1.31048        1.04863
N          0.53209        0.34416        0.92755
C         -0.51617        1.44888       -0.83907
C         -1.50332        0.49686       -0.19630
C         -0.90473        0.23201        1.18876
O         -0.71317        2.20210       -1.74795
O         -2.78350        1.05740       -0.21053
H         -1.46414       -0.43715       -0.79084
H         -1.14367       -0.76902        1.56137
H         -1.25073        0.98829        1.90877
H          0.65344       -1.30288       -1.39425
H          1.94467       -1.29453       -2.62586
O          2.11124       -2.75349       -1.22118
C          1.33704       -3.42087       -0.33319
O          0.29933       -2.97222        0.12612
H          1.35308       -5.23773        0.57334
N          1.86447       -4.61498       -0.03922
H          2.70623       -4.93888       -0.49956
C          2.04916        0.99492       -0.99908
C          0.83334        1.33656       -0.08968
N          1.21401        2.62074        0.46124
C          2.48337        2.93612        0.16678
N          3.01533        2.01072       -0.62593
H          1.76652        1.10896       -2.05609
N          3.10181        4.01287        0.60015
H          0.64571        3.12722        1.13394
H          3.92391        2.10121       -1.06895
H          4.06387        4.19250        0.33252
H          2.62895        4.66218        1.21988
S         -4.05713       -0.01418       -0.01382
O         -5.19455        0.88618       -0.18299
O         -3.87445       -1.00745       -1.07953
O         -3.88043       -0.55233        1.34181
