41
GTX_ketone_30_solv.log	Energy: -1065949.9607625
C          2.27741        1.22184       -0.24450
N          2.13112        1.05680        1.19623
C          1.21411        0.20542        1.66583
C          2.83661       -0.02778       -0.91373
H          2.97934        2.04942       -0.40456
N          1.34787       -0.37481        2.84418
H          2.21433       -0.27464        3.36378
H          0.57434       -0.86664        3.27950
H          2.94252        1.24273        1.77862
N          0.14688       -0.04716        0.88777
C         -0.96743       -0.15795       -1.14644
C         -1.18253       -1.47666       -0.40413
C         -0.73704       -1.20203        1.03821
O         -1.26130        0.08930       -2.28091
O         -2.46423       -2.02034       -0.58199
H         -0.48649       -2.19324       -0.86907
H         -0.18007       -2.04934        1.45500
H         -1.58656       -0.97648        1.69770
H          2.14707       -0.88032       -0.81492
H          2.98883        0.16848       -1.98571
O          4.06977       -0.31821       -0.28105
C          4.60457       -1.53366       -0.52008
O          4.08078       -2.35751       -1.25100
H          6.13151       -0.96178        0.73033
N          5.75842       -1.69579        0.14159
H          6.26333       -2.56655        0.03768
C          0.93402        1.60808       -0.85458
C         -0.24097        0.82759       -0.20626
N         -1.14477        1.88181        0.20371
C         -0.64658        3.09430       -0.07121
N          0.57213        2.98918       -0.59395
H          0.95107        1.41730       -1.93768
N         -1.28015        4.22421        0.15760
H         -2.12586        1.67397        0.39755
H          1.12461        3.77988       -0.90838
H         -0.85318        5.11031       -0.09010
H         -2.20120        4.21681        0.58263
S         -3.77819       -1.19683        0.04728
O         -3.93463       -1.71511        1.40860
O         -3.36753        0.22211       -0.00266
O         -4.83613       -1.56713       -0.88444
