41
GTX_ketone_8_solv.log	Energy: -1065948.0030020
C          2.61690        1.33058       -0.51213
N          2.70232        1.20630        0.93785
C          1.91701        0.36418        1.60985
C          3.30796        0.21049       -1.28374
H          3.15401        2.24978       -0.77832
N          2.26903       -0.10811        2.79158
H          3.21032        0.04424        3.14010
H          1.60565       -0.59886        3.38169
H          3.56586        1.49923        1.38600
N          0.74031        0.00472        1.06160
C         -0.55947       -0.46194       -0.77194
C         -1.01466       -1.42736        0.33686
C          0.07420       -1.27103        1.38948
O         -0.66055       -0.60074       -1.95489
O         -2.22042       -0.98874        0.94159
H         -1.10501       -2.45018       -0.05196
H          0.80199       -2.09187        1.34391
H         -0.37950       -1.24859        2.38939
H          3.46836        0.55260       -2.31412
H          4.27793       -0.02308       -0.82706
O          2.50589       -0.95920       -1.38435
C          2.77676       -2.01198       -0.58412
O          3.60063       -1.97864        0.31368
H          2.04563       -3.88691       -0.31882
N          2.02519       -3.07138       -0.91883
H          1.28976       -2.97826       -1.61011
C          1.15919        1.51043       -0.93354
C          0.15447        0.71057       -0.06545
N         -0.82416        1.71641        0.33018
C         -0.48120        2.92580       -0.15225
N          0.69945        2.87639       -0.75520
H          1.03989        1.20648       -1.98433
N         -1.22223        4.00270       -0.01765
H         -1.81648        1.46418        0.40546
H          1.13572        3.67228       -1.21012
H         -0.93941        4.87731       -0.44723
H         -2.10221        3.95864        0.48558
S         -3.57570       -0.73592       -0.00161
O         -4.64160       -0.84841        0.98621
O         -3.35682        0.63229       -0.51525
O         -3.53681       -1.77406       -1.03313
