41
GTX_ketone_11_solv.log	Energy: -1065946.4493324
C          2.42046       -0.32442       -0.98001
N          2.70861       -0.61502        0.41701
C          1.75623       -0.50220        1.34377
C          1.52163       -1.37690       -1.64287
H          3.38486       -0.30940       -1.50144
N          1.83565       -1.14112        2.49495
H          2.51859       -1.88238        2.61774
H          1.19514       -0.93533        3.25428
H          3.52505       -1.17803        0.63706
N          0.71091        0.30366        1.07378
C         -0.71295        1.37709       -0.42853
C         -1.49680        0.33396        0.34466
C         -0.64397        0.09487        1.58931
O         -1.12727        2.15608       -1.23752
O         -2.79693        0.75850        0.63534
H         -1.48572       -0.58739       -0.26722
H         -0.75471       -0.92429        1.97495
H         -0.89714        0.82048        2.37640
H          0.47456       -1.27369       -1.32976
H          1.57520       -1.24837       -2.73085
O          1.98753       -2.67908       -1.34797
C          1.37271       -3.35148       -0.34647
O          0.38946       -2.93122        0.24193
H          1.59037       -5.13815        0.59225
N          1.98483       -4.51545       -0.10130
H          2.77639       -4.81442       -0.65748
C          1.78769        1.05818       -1.09947
C          0.76064        1.32679        0.04155
N          1.18260        2.61926        0.53801
C          2.33692        3.01723       -0.01501
N          2.74506        2.13247       -0.91936
H          1.28986        1.15303       -2.07566
N          2.96888        4.12781        0.29500
H          0.72101        3.10107        1.30370
H          3.53921        2.27922       -1.53390
H          3.82981        4.37465       -0.18150
H          2.59765        4.75112        1.00387
S         -4.02753       -0.07430       -0.14035
O         -5.19730        0.61974        0.39235
O         -3.76855        0.12896       -1.57031
O         -3.86330       -1.46541        0.30304
