41
GTX_ketone_29_solv.log	Energy: -1065949.5049459
C          2.77315        1.03058       -0.27650
N          2.65027        1.20510        1.16343
C          1.62961        0.69536        1.85398
C          3.31432       -0.33097       -0.68424
H          3.51374        1.76400       -0.61806
N          1.73555        0.47808        3.15477
H          2.63418        0.58198        3.61478
H          0.91927        0.29164        3.72680
H          3.48418        1.46718        1.68063
N          0.48756        0.41562        1.20418
C         -0.53514       -0.34075       -0.73967
C         -0.93460       -1.26719        0.40740
C         -0.53185       -0.51903        1.68268
O         -0.74469       -0.50462       -1.90798
O         -2.25380       -1.74523        0.36772
H         -0.29267       -2.15512        0.30268
H         -0.10268       -1.20157        2.42444
H         -1.38597        0.01103        2.12414
H          3.71206       -0.26578       -1.70837
H          4.12478       -0.63004       -0.00745
O          2.26173       -1.28837       -0.66343
C          2.61688       -2.59209       -0.64746
O          3.72648       -2.97333       -0.32366
H          0.77055       -2.98706       -1.44746
N          1.59274       -3.38310       -1.00599
H          1.75433       -4.38110       -1.06605
C          1.44494        1.35700       -0.95498
C          0.21358        0.87276       -0.14912
N         -0.65658        2.03011       -0.17740
C         -0.05083        3.09167       -0.71909
N          1.20013        2.78666       -1.06159
H          1.41934        0.89703       -1.95432
N         -0.61819        4.26817       -0.87591
H         -1.65509        1.93817        0.02532
H          1.80528        3.41047       -1.58578
H         -0.11285        5.02850       -1.31811
H         -1.56855        4.42210       -0.55666
S         -3.52677       -0.70048        0.06207
O         -4.53456       -1.16159        1.01100
O         -2.97859        0.64173        0.35368
O         -3.84810       -0.91511       -1.34709
