40
STX_80_solv.log	Energy: -675522.0237301
C         -1.10012        0.38908        0.07101
N         -1.20342       -1.03861       -0.15325
C         -0.18906       -1.81192       -0.51879
C         -2.21727        0.87430        0.98813
H         -1.19626        0.92499       -0.88872
N         -0.39969       -3.09942       -0.76723
H         -1.34173       -3.47294       -0.72789
H          0.34274       -3.70819       -1.08786
H         -2.14590       -1.43799       -0.07158
N          1.05716       -1.30734       -0.61675
C          2.70577       -0.28594        0.69057
C          3.38768       -1.31742       -0.20691
C          2.23592       -2.20088       -0.66080
O          3.45476        0.85877        0.94885
O          2.28277       -0.83768        1.89449
H          3.86785       -0.81493       -1.05928
H          4.15555       -1.87740        0.34186
H          2.08574       -3.03339        0.04131
H          2.38080       -2.60556       -1.67086
H         -2.35585        0.18143        1.83081
H         -1.95539        1.86107        1.38819
O         -3.44665        1.08287        0.30228
C         -4.26231        0.03183        0.09979
O         -3.93519       -1.12719        0.33210
H         -5.66383        1.39015       -0.52485
N         -5.44677        0.41086       -0.38489
H         -6.13363       -0.29790       -0.61079
C          0.27848        0.71367        0.66774
C          1.39472        0.00676       -0.11630
N          1.65723        0.99518       -1.16004
C          1.34701        2.21294       -0.68103
N          0.63006        2.10455        0.44179
H          0.31881        0.44701        1.72975
N          1.69550        3.34708       -1.24583
H          2.43197        0.88275       -1.81014
H          0.09255        2.87912        0.81929
H          1.39654        4.23058       -0.84604
H          2.27157        3.34991       -2.08102
H          4.14154        0.96866        0.27931
H          3.04596       -1.24221        2.32967
