40
STX_18_solv.log	Energy: -675522.6970038
C         -0.23945       -1.70029       -0.82983
N         -0.55141       -1.86932        0.58433
C         -0.68832       -0.78114        1.35720
C         -1.46378       -1.25388       -1.63231
H          0.02644       -2.68761       -1.22919
N         -1.49443       -0.78719        2.40515
H         -2.14278       -1.55537        2.54478
H         -1.49267       -0.02515        3.07387
H         -1.11722       -2.67618        0.83495
N          0.01321        0.31754        1.05234
C          0.98707        1.76606       -0.49392
C          0.59626        2.57812        0.74490
C         -0.33808        1.66483        1.53237
O          2.20179        2.10850       -1.05592
O          0.01734        1.82796       -1.50317
H          1.50579        2.79479        1.32190
H          0.12222        3.52574        0.46290
H         -1.39899        1.85181        1.31195
H         -0.18095        1.75452        2.61614
H         -1.17387       -1.06857       -2.67434
H         -2.21988       -2.04763       -1.60334
O         -2.03370       -0.04522       -1.13875
C         -3.18357       -0.10916       -0.41720
O         -3.70842       -1.15819       -0.09540
H         -3.11198        1.94080       -0.41069
N         -3.63221        1.11817       -0.12863
H         -4.45038        1.21397        0.45996
C          0.99830       -0.80916       -0.98739
C          1.09223        0.31672        0.07886
N          2.37549        0.06036        0.70246
C          3.00680       -0.97377        0.13788
N          2.23340       -1.54351       -0.78141
H          0.98608       -0.35891       -1.98867
N          4.22041       -1.37029        0.46023
H          2.83349        0.72459        1.31893
H          2.52115       -2.32656       -1.35838
H          4.64105       -2.16752       -0.00471
H          4.73595       -0.89460        1.19269
H          2.16703        3.04288       -1.30266
H         -0.82253        1.42426       -1.22457
