40
STX_64_solv.log	Energy: -675522.4220354
C         -1.13220       -0.06843        0.25535
N         -0.94863       -1.47760       -0.02427
C          0.17780       -2.00309       -0.49968
C         -2.23984        0.10544        1.28572
H         -1.42551        0.45190       -0.67091
N          0.21554       -3.28607       -0.83524
H         -0.62243       -3.85278       -0.75997
H          1.03728       -3.70041       -1.25903
H         -1.78552       -2.05606       -0.04362
N          1.28705       -1.25076       -0.61344
C          2.75107        0.07916        0.61485
C          3.58328       -0.77259       -0.34154
C          2.61998       -1.87789       -0.74777
O          3.20917        1.37596        0.79676
O          2.52993       -0.58409        1.82538
H          3.88617       -0.16417       -1.20469
H          4.48781       -1.16132        0.14465
H          2.68573       -2.73417       -0.06145
H          2.78475       -2.22781       -1.77528
H         -1.96996       -0.40083        2.22146
H         -2.40124        1.17365        1.48433
O         -3.44160       -0.50756        0.84849
C         -4.21117        0.18715       -0.02377
O         -3.92804        1.30654       -0.41512
H         -5.96232       -0.09939       -1.01235
N         -5.29216       -0.51717       -0.37944
H         -5.46994       -1.43339        0.01282
C          0.17996        0.54697        0.75708
C          1.37002        0.10343       -0.10884
N          1.34243        1.12602       -1.15019
C          0.78711        2.24114       -0.64418
N          0.19459        1.98064        0.52627
H          0.35370        0.29889        1.81005
N          0.82042        3.41815       -1.22596
H          2.09090        1.19561       -1.83566
H         -0.50013        2.60358        0.92803
H          0.35024        4.21297       -0.80513
H          1.32106        3.54494       -2.09924
H          4.16024        1.35024        0.96473
H          3.37273       -0.92857        2.14968
