40
STX_71_solv.log	Energy: -675522.7121205
C          0.92650        1.05156        0.00274
N          0.05106        2.19238       -0.15410
C         -1.24002        2.10619       -0.47194
C          2.09041        1.46117        0.90174
H          1.32843        0.75783       -0.98158
N         -1.93310        3.21257       -0.70345
H         -1.47471        4.11669       -0.65996
H         -2.90422        3.18011       -0.98918
H          0.48261        3.11163       -0.20933
N         -1.84982        0.91045       -0.53520
C         -2.33888       -0.98890        0.73023
C         -3.57941       -0.63552       -0.08148
C         -3.32502        0.80364       -0.50456
O         -2.20964       -2.36599        0.85702
O         -2.30827       -0.33943        1.96256
H         -3.65350       -1.30764       -0.94708
H         -4.49232       -0.74150        0.51796
H         -3.72116        1.50972        0.23965
H         -3.75313        1.04140       -1.48721
H          2.59071        2.34641        0.48455
H          1.72619        1.69159        1.91133
O          3.00953        0.39346        1.04669
C          3.95826        0.25144        0.08806
O          4.07282        1.01595       -0.85325
H          5.48904       -1.02696       -0.30034
N          4.71577       -0.82730        0.32165
H          4.57656       -1.38962        1.15226
C          0.14390       -0.13697        0.58166
C         -1.20744       -0.31809       -0.12503
N         -0.82002       -1.18361       -1.23467
C          0.25992       -1.89520       -0.87064
N          0.79189       -1.39636        0.25217
H          0.00178       -0.02089        1.66196
N          0.72785       -2.93244       -1.52759
H         -1.51656       -1.58791       -1.85637
H          1.75138       -1.59041        0.52507
H          1.56949       -3.40166       -1.20901
H          0.24735       -3.28066       -2.35052
H         -1.53987       -2.54714        1.53144
H         -3.13840       -0.51876        2.42583
