40
STX_83_solv.log	Energy: -675522.1324084
C         -0.33008       -1.76297       -0.58635
N         -0.62631       -1.72465        0.84488
C         -0.79953       -0.53963        1.44558
C         -1.57851       -1.52532       -1.42919
H         -0.00329       -2.78438       -0.81807
N         -1.65249       -0.39413        2.44493
H         -2.34361       -1.11410        2.63146
H         -1.66400        0.45274        3.00364
H         -1.17076       -2.50174        1.21107
N         -0.06349        0.49671        1.01710
C          1.33326        1.72980       -0.43422
C         -0.02238        2.40836       -0.30108
C         -0.52785        1.89249        1.03372
O          2.28464        2.29223        0.42075
O          1.76284        1.74665       -1.75465
H          0.07374        3.50109       -0.33874
H         -0.67820        2.07040       -1.11555
H         -1.62069        1.92025        1.11618
H         -0.08941        2.43919        1.88038
H         -1.31825       -1.61592       -2.49208
H         -2.33980       -2.27554       -1.18104
O         -2.10168       -0.21955       -1.23648
C         -3.24633       -0.07331       -0.53037
O         -3.82338       -0.99732        0.01538
H         -4.44135        1.46669        0.04036
N         -3.64431        1.20683       -0.52703
H         -3.06739        1.92784       -0.94415
C          0.83236       -0.81366       -0.93406
C          1.07432        0.28220        0.14080
N          2.23141       -0.23829        0.84969
C          2.84494       -1.18231        0.11855
N          2.11311       -1.50154       -0.94710
H          0.64562       -0.34582       -1.90712
N          4.00897       -1.71379        0.42278
H          2.76393        0.38411        1.45219
H          2.28513       -2.33319       -1.50389
H          4.41382       -2.43290       -0.16712
H          4.51480       -1.40420        1.24577
H          2.33814        3.23974        0.23421
H          2.67272        1.41789       -1.78461
