40
STX_29_solv.log	Energy: -675523.8010440
C         -0.31500       -1.80070       -0.58304
N         -0.64254       -1.73751        0.83853
C         -0.79069       -0.54480        1.43911
C         -1.54422       -1.54991       -1.45213
H         -0.00198       -2.83061       -0.79680
N         -1.64592       -0.39296        2.43746
H         -2.31915       -1.12525        2.63947
H         -1.66427        0.45034        2.99989
H         -1.24050       -2.48401        1.18453
N         -0.03613        0.47536        1.02034
C          1.17390        1.71068       -0.54861
C          0.83076        2.62374        0.62276
C         -0.28636        1.88702        1.35065
O          2.44199        1.99052       -1.03754
O          0.20538        1.75094       -1.54894
H          1.71540        2.73685        1.26441
H          0.52399        3.61836        0.27539
H         -1.28449        2.16768        0.98473
H         -0.24391        2.05457        2.43544
H         -1.26492       -1.62869       -2.51093
H         -2.31173       -2.30157       -1.22711
O         -2.06590       -0.24664       -1.25264
C         -3.18477       -0.09206       -0.51182
O         -3.79563       -1.01872       -0.00816
H         -4.29702        1.47055        0.16336
N         -3.51780        1.20395       -0.42504
H         -2.90231        1.91529       -0.80161
C          0.87651       -0.88441       -0.90874
C          1.06280        0.28773        0.09576
N          2.28766       -0.07877        0.78604
C          2.91029       -1.09067        0.16835
N          2.15028       -1.57765       -0.80712
H          0.74854       -0.48378       -1.92114
N          4.10543       -1.53643        0.49366
H          2.78692        0.58048        1.37690
H          2.36371       -2.42810       -1.31790
H          4.51436       -2.32063       -0.00289
H          4.61927       -1.11146        1.25789
H          2.57678        1.46890       -1.84164
H          0.08833        2.67052       -1.82462
