40
STX_6_solv.log	Energy: -675522.0087828
C         -1.08160       -0.28321       -0.94184
N         -0.25382       -1.13092       -1.78926
C          0.80070       -1.76434       -1.25099
C         -1.90784       -1.14929        0.01724
H         -1.77212        0.25852       -1.59934
N          1.21400       -2.92709       -1.72518
H          0.67171       -3.40613       -2.43683
H          2.09607       -3.33342       -1.43373
H         -0.70864       -1.58362       -2.57742
N          1.42260       -1.18048       -0.22114
C          1.53130        0.18495        1.66045
C          2.71315       -0.78408        1.71094
C          2.34175       -1.86781        0.70227
O          1.76658        1.45655        2.17441
O          0.40422       -0.33675        2.28234
H          3.63242       -0.26290        1.40522
H          2.86025       -1.18086        2.72331
H          1.81398       -2.71062        1.17099
H          3.22439       -2.25132        0.17192
H         -1.25308       -1.70632        0.69945
H         -2.50990       -1.85848       -0.56732
O         -2.73636       -0.35713        0.84892
C         -3.87285        0.13610        0.30685
O         -4.22368       -0.09977       -0.83732
H         -5.41536        1.31404        0.90801
N         -4.53430        0.90030        1.18514
H         -4.19004        1.02826        2.12853
C         -0.22240        0.74529       -0.20625
C          1.19110        0.20613        0.13940
N          2.06202        1.10797       -0.59213
C          1.37629        2.09594       -1.17978
N          0.07145        1.91396       -1.01600
H         -0.74141        1.04576        0.71203
N          1.92620        3.09828       -1.83332
H          3.07124        1.12419       -0.47644
H         -0.64111        2.52336       -1.40264
H          1.34439        3.81347       -2.25578
H          2.93427        3.16248       -1.92263
H          2.68237        1.71676        2.01362
H          0.63988       -0.58862        3.18570
