40
STX_67_solv.log	Energy: -675521.8943314
C          0.93145        1.05166        0.01225
N          0.06341        2.19718       -0.15223
C         -1.22758        2.11586       -0.47076
C          2.10103        1.45938        0.90476
H          1.32965        0.74877       -0.97071
N         -1.91641        3.22451       -0.70383
H         -1.45520        4.12713       -0.65913
H         -2.88755        3.19551       -0.99003
H          0.49969        3.11409       -0.20947
N         -1.84260        0.92187       -0.53273
C         -2.33838       -0.98788        0.72057
C         -3.58000       -0.61741       -0.08905
C         -3.31840        0.82629       -0.48914
O         -2.13747       -2.35328        0.89714
O         -2.31296       -0.35234        1.95732
H         -3.65829       -1.26797       -0.97230
H         -4.49429       -0.72953        0.50719
H         -3.70251        1.52245        0.27052
H         -3.75438        1.08262       -1.46359
H          2.60087        2.34317        0.48383
H          1.74394        1.69127        1.91652
O          3.01887        0.38975        1.04452
C          3.95504        0.23963        0.07484
O          4.06574        1.00380       -0.86727
H          5.47171       -1.05012       -0.33036
N          4.70496       -0.84655        0.29838
H          4.57127       -1.40726        1.13101
C          0.13964       -0.12670        0.59981
C         -1.20378       -0.30796       -0.12035
N         -0.80252       -1.17621       -1.22403
C          0.26446       -1.89622       -0.83344
N          0.78535       -1.39091        0.28983
H         -0.01302        0.00296        1.67686
N          0.73099       -2.94516       -1.47306
H         -1.49325       -1.58367       -1.85054
H          1.73872       -1.59013        0.57926
H          1.56245       -3.41984       -1.13648
H          0.26099       -3.29589       -2.30085
H         -2.66802       -2.85079        0.26302
H         -3.12945       -0.56908        2.42833
