40
STX_32_solv.log	Energy: -675518.3750386
C          0.69640        0.52551       -1.52557
N         -0.45570        1.33398       -1.88175
C         -1.57282        1.46433       -1.16130
C          1.81709        1.37264       -0.91055
H          1.09883        0.10164       -2.45612
N         -2.43025        2.43160       -1.46525
H         -2.21740        3.07827       -2.21749
H         -3.37054        2.43303       -1.08685
H         -0.35438        1.95280       -2.68166
N         -1.85461        0.62296       -0.15231
C         -0.60620        0.17518        1.74477
C         -2.03345        0.42236        2.22985
C         -2.72136        1.01539        0.98695
O          0.12404       -0.68215        2.54622
O          0.03868        1.40123        1.56729
H         -2.50358       -0.51153        2.56518
H         -2.03849        1.12438        3.07338
H         -2.76111        2.11049        1.04286
H         -3.74037        0.63276        0.84858
H          2.00264        2.23546       -1.56255
H          1.54588        1.71510        0.09282
O          3.02927        0.62911       -0.88309
C          3.42426        0.03549        0.26253
O          2.75411        0.00970        1.28603
H          5.03663       -1.01202        0.91261
N          4.63162       -0.52223        0.12474
H          5.14713       -0.44312       -0.74322
C          0.27371       -0.64046       -0.64920
C         -0.89144       -0.36910        0.31298
N         -1.50065       -1.68936        0.36599
C         -1.18000       -2.40144       -0.72512
N         -0.23975       -1.76591       -1.42477
H          1.12555       -0.97868       -0.04539
N         -1.71949       -3.55643       -1.04660
H         -2.34609       -1.88571        0.89443
H          0.33347       -2.23883       -2.11774
H         -1.39612       -4.06411       -1.86345
H         -2.45361       -3.95698       -0.47219
H          1.04958       -0.61874        2.24661
H          0.01778        1.88092        2.40633
