40
STX_45_solv.log	Energy: -675521.5646818
C         -0.35228       -1.69803       -0.68441
N         -0.70715       -1.68420        0.72365
C         -0.69297       -0.55335        1.44067
C         -1.48581       -1.18929       -1.62034
H         -0.15660       -2.74612       -0.93524
N         -1.46004       -0.42526        2.51237
H         -2.15301       -1.13516        2.72679
H         -1.34109        0.34830        3.15724
H         -1.32653       -2.42102        1.04825
N          0.11412        0.44114        1.06086
C          1.04970        1.69142       -0.65323
C          0.85893        2.62098        0.55068
C         -0.05142        1.83856        1.49716
O          2.20553        1.89306       -1.38223
O         -0.03536        1.74365       -1.53356
H          1.83849        2.80899        1.01101
H          0.42408        3.57972        0.24416
H         -1.10926        2.11630        1.38685
H          0.24049        1.96048        2.54944
H         -1.24934       -0.20300       -2.03140
H         -1.59436       -1.89210       -2.45386
O         -2.74408       -1.15233       -0.97086
C         -3.15183        0.01425       -0.43865
O         -2.49909        1.05160       -0.49295
H         -4.75852        0.71520        0.58209
N         -4.34399       -0.10093        0.14932
H         -4.83859       -0.98486        0.15207
C          0.95040       -0.92717       -0.91273
C          1.13183        0.29339        0.03264
N          2.43729        0.04440        0.61456
C          2.97438       -1.09796        0.18122
N          2.12666       -1.73059       -0.62576
H          0.98296       -0.57978       -1.95479
N          4.17044       -1.53482        0.51720
H          2.92635        0.71164        1.20302
H          2.37044       -2.56001       -1.15665
H          4.52427       -2.40625        0.13739
H          4.75252       -0.99912        1.15182
H          2.19306        2.79690       -1.72544
H         -0.88820        1.57692       -1.07942
