40
STX_22_solv.log	Energy: -675523.8735339
C          0.73294        0.54667       -1.46433
N         -0.34536        1.45939       -1.80825
C         -1.21139        1.87625       -0.87265
C          1.85985        1.28661       -0.73379
H          1.15408        0.17199       -2.40604
N         -1.81781        3.04735       -0.98845
H         -1.55660        3.68063       -1.73697
H         -2.60560        3.29408       -0.39975
H         -0.19098        2.07882       -2.59922
N         -1.45404        1.08509        0.17533
C         -0.71188       -0.39498        1.79220
C         -1.92079        0.34478        2.36600
C         -2.10163        1.53298        1.42080
O         -0.59363       -1.73732        2.12335
O          0.40970        0.34383        2.15269
H         -2.79757       -0.31590        2.35482
H         -1.73133        0.65898        3.39914
H         -1.58932        2.43501        1.78412
H         -3.16128        1.77093        1.25036
H          2.04735        2.23322       -1.25569
H          1.59749        1.50206        0.31036
O          3.07235        0.55122       -0.81684
C          3.49133       -0.19336        0.21904
O          2.84404       -0.36960        1.24609
H          5.19505       -0.52463       -0.86970
N          4.69561       -0.72083       -0.01084
H          5.11061       -1.31798        0.69350
C          0.17402       -0.65480       -0.69923
C         -0.99411       -0.29227        0.26074
N         -2.03039       -1.22061       -0.15776
C         -1.66580       -1.94878       -1.21532
N         -0.43147       -1.62855       -1.59015
H          0.98171       -1.13435       -0.13057
N         -2.42587       -2.85257       -1.79987
H         -2.93929       -1.29066        0.28854
H          0.08035       -2.10391       -2.32568
H         -2.07859       -3.37509       -2.59667
H         -3.36667       -3.02619       -1.46385
H         -0.49610       -1.79971        3.08336
H          1.23719       -0.04598        1.79675
