40
STX_35_solv.log	Energy: -675520.6043350
C         -0.59824       -1.28028       -0.90470
N         -0.90131       -1.48291        0.50280
C         -0.64608       -0.51512        1.38713
C         -1.54118       -0.27919       -1.58089
H         -0.71513       -2.25355       -1.39670
N         -1.26297       -0.48433        2.55660
H         -2.07796       -1.06776        2.71537
H         -0.97027        0.15565        3.28615
H         -1.56071       -2.20951        0.76407
N          0.25981        0.41744        1.05876
C          1.46634        1.72567       -0.53154
C          0.50140        2.58373        0.29146
C          0.26214        1.79109        1.56480
O          2.76200        2.16341       -0.25555
O          1.20687        1.73065       -1.89805
H          0.92524        3.57855        0.47169
H         -0.44331        2.68360       -0.25928
H         -0.69999        2.02420        2.03579
H          1.06553        1.93178        2.30366
H         -1.34285        0.75061       -1.25966
H         -1.40326       -0.33971       -2.66741
O         -2.88745       -0.62121       -1.30748
C         -3.51234        0.04516       -0.30967
O         -3.01896        0.99205        0.28198
H         -5.08014       -1.23933       -0.62706
N         -4.72464       -0.47016       -0.07292
H         -5.31785       -0.02870        0.61809
C          0.85230       -0.83796       -1.05116
C          1.25098        0.23837        0.00090
N          2.48577       -0.30991        0.52796
C          2.72543       -1.54808        0.08368
N          1.78470       -1.91851       -0.77966
H          1.01444       -0.44121       -2.06062
N          3.75357       -2.28507        0.44946
H          3.05194        0.16674        1.22240
H          1.84239       -2.75743       -1.34735
H          3.88686       -3.20912        0.05366
H          4.42426       -1.93161        1.12284
H          3.38560        1.61082       -0.74817
H          1.18653        2.65057       -2.19567
