40
STX_27_solv.log	Energy: -675522.6960563
C         -0.23949       -1.70028       -0.82986
N         -0.55131       -1.86934        0.58433
C         -0.68825       -0.78121        1.35726
C         -1.46378       -1.25380       -1.63232
H          0.02635       -2.68759       -1.22929
N         -1.49416       -0.78743        2.40533
H         -2.14236       -1.55574        2.54503
H         -1.49237       -0.02551        3.07418
H         -1.11706       -2.67625        0.83498
N          0.01309        0.31757        1.05226
C          0.98713        1.76612       -0.49384
C          0.59630        2.57811        0.74502
C         -0.33814        1.66484        1.53235
O          2.20192        2.10851       -1.05568
O          0.01745        1.82820       -1.50314
H          1.50581        2.79463        1.32211
H          0.12237        3.52581        0.46308
H         -1.39903        1.85193        1.31192
H         -0.18107        1.75444        2.61614
H         -1.17377       -1.06845       -2.67432
H         -2.21990       -2.04752       -1.60351
O         -2.03369       -0.04512       -1.13882
C         -3.18357       -0.10916       -0.41726
O         -3.70837       -1.15822       -0.09555
H         -3.11225        1.94089       -0.41068
N         -3.63228        1.11815       -0.12850
H         -4.45059        1.21385        0.45992
C          0.99820       -0.80911       -0.98750
C          1.09213        0.31672        0.07883
N          2.37533        0.06021        0.70251
C          3.00671       -0.97380        0.13778
N          2.23340       -1.54334       -0.78172
H          0.98585       -0.35881       -1.98875
N          4.22029       -1.37038        0.46015
H          2.83317        0.72418        1.31937
H          2.52114       -2.32642       -1.35865
H          4.64097       -2.16755       -0.00485
H          4.73574       -0.89481        1.19276
H          2.16716        3.04282       -1.30265
H         -0.82245        1.42443       -1.22472
