40
STX_62_solv.log	Energy: -675521.8832621
C         -1.04501        0.11789       -0.22979
N         -0.95031       -1.32096       -0.36218
C          0.19057       -1.97187       -0.58013
C         -2.30779        0.48293        0.52292
H         -1.08931        0.57564       -1.23236
N          0.16670       -3.27821       -0.80856
H         -0.72154       -3.76697       -0.84643
H          1.00963       -3.79917       -1.01879
H         -1.81982       -1.83079       -0.49775
N          1.36558       -1.31714       -0.54119
C          2.69948       -0.02823        0.88059
C          3.61051       -1.00718        0.14192
C          2.64112       -2.05295       -0.38829
O          3.26688        1.21275        1.15510
O          2.19359       -0.56644        2.05759
H          4.12889       -0.48745       -0.67718
H          4.36450       -1.43534        0.81442
H          2.50306       -2.86373        0.34120
H          2.95912       -2.48370       -1.34661
H         -2.30459        0.02936        1.52562
H         -2.37480        1.57574        0.62928
O         -3.39877       -0.00829       -0.23892
C         -4.62823        0.15508        0.29508
O         -4.81464        0.71609        1.36126
H         -6.54368       -0.30218       -0.20435
N         -5.57609       -0.36852       -0.49329
H         -5.33995       -0.81944       -1.36824
C          0.19488        0.65329        0.49728
C          1.47794        0.05511       -0.09686
N          1.74965        1.01129       -1.16708
C          1.22157        2.19997       -0.82700
N          0.39036        2.06295        0.21140
H          0.13544        0.45551        1.57330
N          1.48303        3.33360       -1.43679
H          2.60422        0.96318       -1.71768
H         -0.29570        2.77213        0.45340
H          1.01577        4.18797       -1.15142
H          2.15068        3.36571       -2.19998
H          3.97389        1.40101        0.52539
H          2.93490       -0.85562        2.60744
