40
STX_73_solv.log	Energy: -675523.1156719
C         -0.13680       -1.89178       -0.67399
N         -0.03988       -2.17378        0.75542
C         -0.30294       -1.19209        1.63520
C         -1.59120       -1.85063       -1.13003
H          0.32016       -2.73716       -1.20404
N         -0.86855       -1.45731        2.80051
H         -1.21426       -2.39159        2.99410
H         -0.92069       -0.76090        3.53533
H         -0.31959       -3.10989        1.03813
N          0.05411        0.05380        1.30991
C          0.59380        1.83963       -0.08863
C          0.42212        2.36825        1.33318
C         -0.36173        1.26483        2.03286
O          1.64097        2.37049       -0.82433
O         -0.63595        2.01267       -0.71843
H          1.41042        2.50351        1.79278
H         -0.10563        3.32918        1.33566
H         -1.44904        1.39294        1.92807
H         -0.10702        1.19659        3.09897
H         -1.64677       -1.59920       -2.19666
H         -2.04030       -2.84071       -0.97166
O         -2.34334       -0.92761       -0.35864
C         -2.86565        0.16176       -0.96078
O         -2.70052        0.42482       -2.13970
H         -3.58243        0.65166        0.88985
N         -3.61138        0.87060       -0.09920
H         -3.92909        1.78744       -0.38851
C          0.67758       -0.63699       -1.03598
C          0.89888        0.32430        0.16629
N          2.30568        0.10908        0.47577
C          2.92355       -0.53618       -0.52170
N          2.04035       -0.95651       -1.42273
H          0.17040       -0.12710       -1.86309
N          4.22325       -0.72908       -0.58910
H          2.81217        0.73158        1.09960
H          2.26687       -1.60810       -2.16737
H          4.62633       -1.24086       -1.36668
H          4.83301       -0.36962        0.13712
H          1.51641        3.32764       -0.88345
H         -0.60089        1.69748       -1.63198
