40
STX_53_solv.log	Energy: -675523.0903205
C         -0.44699       -0.17945       -1.71654
N          0.45680       -1.30062       -1.93205
C          0.91078       -1.97658       -0.86481
C         -1.80113       -0.69006       -1.22347
H         -0.59074        0.31993       -2.68261
N          1.21202       -3.26127       -0.94446
H          0.99510       -3.78472       -1.78627
H          1.70911       -3.73218       -0.19641
H          0.37280       -1.81227       -2.80600
N          1.04858       -1.31046        0.28745
C          0.49969        0.36238        1.81481
C          1.17403       -0.77326        2.57699
C          1.13142       -1.95202        1.60965
O          0.85471        1.59318        2.34576
O         -0.88211        0.20217        1.73519
H          2.20940       -0.48607        2.80680
H          0.65355       -0.98351        3.51988
H          0.24207       -2.58185        1.75600
H          2.02944       -2.57898        1.69317
H         -2.22096       -1.38061       -1.96994
H         -1.69856       -1.22254       -0.26838
O         -2.65646        0.42728       -1.06819
C         -3.57008        0.38804       -0.07465
O         -3.77256       -0.59848        0.61228
H         -3.99867        2.33095       -0.58499
N         -4.20812        1.56102        0.03793
H         -4.95735        1.64707        0.71261
C          0.18630        0.82693       -0.75671
C          1.02129        0.14253        0.36017
N          2.33850        0.71636        0.16594
C          2.35468        1.61245       -0.82699
N          1.16245        1.68115       -1.40871
H         -0.60904        1.43698       -0.31047
N          3.41057        2.31855       -1.17566
H          3.09308        0.61591        0.83786
H          0.94820        2.27891       -2.19962
H          3.35174        2.98586       -1.93700
H          4.29202        2.19706       -0.68934
H          0.36161        2.28051        1.87466
H         -1.23704        0.07757        2.62598
