40
STX_20_solv.log	Energy: -675522.1768675
C         -1.07301       -0.26166       -0.96001
N         -0.23589       -1.08335       -1.82247
C          0.81522       -1.72542       -1.28906
C         -1.89668       -1.15323       -0.02184
H         -1.76551        0.28914       -1.60775
N          1.24039       -2.87324       -1.78898
H          0.71046       -3.33337       -2.52219
H          2.12798       -3.27586       -1.50887
H         -0.68102       -1.51791       -2.62632
N          1.42121       -1.16832       -0.23518
C          1.50625        0.15177        1.67044
C          2.68014       -0.82587        1.72148
C          2.32257       -1.88416        0.68239
O          1.78146        1.43304        2.12593
O          0.36423       -0.38938        2.26817
H          3.60049       -0.29330        1.44458
H          2.81249       -1.24842        2.72619
H          1.78428       -2.73740        1.11949
H          3.21325       -2.25623        0.15732
H         -2.49948       -1.84664       -0.62440
H         -1.24074       -1.72749        0.64479
O         -2.72445       -0.38341        0.83115
C         -3.85963        0.12599        0.30144
O         -4.21166       -0.08282       -0.84759
H         -4.17288        0.97782        2.14298
N         -4.51801        0.87227        1.19711
H         -5.39903        1.29309        0.93071
C         -0.22262        0.75710       -0.20187
C          1.18988        0.21403        0.15251
N          2.06806        1.12482       -0.55643
C          1.38709        2.11916       -1.13977
N          0.08022        1.93422       -0.99526
H         -0.75318        1.04579        0.71347
N          1.94388        3.13024       -1.77372
H          3.06750        1.17118       -0.38064
H         -0.62831        2.53737       -1.39889
H          1.36628        3.85009       -2.19420
H          2.95272        3.19336       -1.85500
H          2.12938        1.37002        3.02583
H          0.60449       -0.77338        3.12187
