40
STX_39_solv.log	Energy: -675523.4637890
C          0.64149        1.36930       -0.62764
N          0.92952        1.26148        0.79587
C          0.67720        0.11209        1.43754
C          1.60423        0.54098       -1.48252
H          0.76245        2.42592       -0.89573
N          1.34927       -0.22106        2.52595
H          2.19194        0.28724        2.77364
H          1.08470       -1.02430        3.08446
H          1.66522        1.85297        1.17140
N         -0.28801       -0.67792        0.95254
C         -1.62171       -1.54144       -0.74617
C         -1.58896       -2.55795        0.39285
C         -0.42344       -2.10885        1.27062
O         -2.83679       -1.37984       -1.39026
O         -0.60111       -1.88799       -1.63661
H         -2.53925       -2.50452        0.94075
H         -1.45953       -3.57651        0.00856
H          0.51714       -2.61815        1.01662
H         -0.63640       -2.26236        2.33756
H          1.43375       -0.53424       -1.34756
H          1.45311        0.79417       -2.53970
O          2.94204        0.87055       -1.15533
C          3.62224        0.02133       -0.35121
O          3.18029       -1.05142        0.02658
H          5.46264       -0.05419        0.50281
N          4.82416        0.51928       -0.03400
H          5.14711        1.39112       -0.43536
C         -0.80895        0.97221       -0.89618
C         -1.28137       -0.21073       -0.00219
N         -2.44343        0.34989        0.66522
C         -2.68826        1.60605        0.28045
N         -1.74719        2.02542       -0.55921
H         -0.91673        0.71439       -1.95943
N         -3.71419        2.32517        0.68529
H         -3.10391       -0.20946        1.19624
H         -1.74383        2.94039       -0.99723
H         -3.83706        3.27422        0.34961
H         -4.38305        1.94183        1.34395
H         -3.09531       -2.23191       -1.76823
H         -0.64421       -1.31074       -2.41241
