40
STX_58_solv.log	Energy: -675523.6924346
C          0.12707       -1.88169        0.66256
N          0.01466       -2.16849       -0.76591
C          0.27011       -1.18724       -1.64860
C          1.58537       -1.81979        1.10026
H         -0.31451       -2.73066        1.19988
N          0.83954       -1.45126       -2.81250
H          1.19666       -2.38215       -3.00136
H          0.88548       -0.75745       -3.55017
H          0.29569       -3.10392       -1.04946
N         -0.09674        0.05705       -1.32659
C         -0.60825        1.83393        0.10559
C         -0.39036        2.38344       -1.29867
C          0.36612        1.27185       -2.01231
O         -1.64558        2.50203        0.74231
O          0.55862        1.83874        0.86179
H         -1.36613        2.56262       -1.77107
H          0.16689        3.32861       -1.27580
H          1.45489        1.36364       -1.88937
H          0.12676        1.24055       -3.08344
H          1.64965       -1.56792        2.16629
H          2.05027       -2.80253        0.93733
O          2.30060       -0.87502        0.32006
C          2.94638        0.13601        0.93936
O          2.93770        0.30575        2.14558
H          3.51282        0.72405       -0.94174
N          3.61902        0.88538        0.05258
H          4.06981        1.73143        0.37716
C         -0.69138       -0.63297        1.02897
C         -0.92730        0.32536       -0.17144
N         -2.33778        0.12574       -0.46109
C         -2.94472       -0.52641        0.53981
N         -2.05188       -0.95865        1.42508
H         -0.18027       -0.09764        1.83694
N         -4.24457       -0.71424        0.62180
H         -2.84773        0.76351       -1.06668
H         -2.27295       -1.61256        2.16930
H         -4.64052       -1.23065        1.39990
H         -4.86125       -0.34799       -0.09510
H         -1.69088        2.18645        1.65648
H          0.96055        2.71690        0.81615
