40
STX_57_solv.log	Energy: -675523.6922401
C         -0.12718       -1.88161       -0.66257
N         -0.01477       -2.16843        0.76589
C         -0.26998       -1.18716        1.64863
C         -1.58548       -1.81968       -1.10020
H          0.31433       -2.73058       -1.19995
N         -0.83921       -1.45120        2.81264
H         -1.19646       -2.38204        3.00149
H         -0.88482       -0.75748        3.55043
H         -0.29578       -3.10385        1.04954
N          0.09693        0.05711        1.32662
C          0.60838        1.83394       -0.10571
C          0.39075        2.38352        1.29859
C         -0.36577        1.27201        2.01228
O          1.64563        2.50194       -0.74269
O         -0.55859        1.83868       -0.86173
H          1.36658        2.56265        1.77087
H         -0.16641        3.32873        1.27569
H         -1.45452        1.36392        1.88946
H         -0.12634        1.24068        3.08340
H         -1.64975       -1.56781       -2.16622
H         -2.05039       -2.80242       -0.93728
O         -2.30059       -0.87490       -0.31993
C         -2.94680        0.13594       -0.93913
O         -2.93862        0.30555       -2.14539
H         -4.07070        1.73102       -0.37689
N         -3.61910        0.88543       -0.05226
H         -3.51312        0.72389        0.94204
C          0.69137       -0.63295       -1.02898
C          0.92740        0.32537        0.17142
N          2.33788        0.12562        0.46101
C          2.94477       -0.52649       -0.53994
N          2.05184       -0.95865       -1.42516
H          0.18028       -0.09760       -1.83695
N          4.24460       -0.71438       -0.62203
H          2.84788        0.76310        1.06685
H          2.27288       -1.61243       -2.16951
H          4.64045       -1.23092       -1.40009
H          4.86134       -0.34846        0.09499
H          1.69033        2.18667       -1.65699
H         -0.96042        2.71688       -0.81634
