40
STX_28_solv.log	Energy: -675523.0444684
C         -1.08342       -0.27430       -0.93060
N         -0.26359       -1.12391       -1.78302
C          0.78746       -1.76509       -1.24744
C         -1.90739       -1.13706        0.03335
H         -1.77567        0.27062       -1.58370
N          1.19449       -2.92807       -1.72652
H          0.65013       -3.40040       -2.44108
H          2.07533       -3.33963       -1.43876
H         -0.72215       -1.57129       -2.57210
N          1.41084       -1.18867       -0.21426
C          1.56679        0.18927        1.65596
C          2.72558       -0.80033        1.69985
C          2.33120       -1.88323        0.70050
O          1.95903        1.42830        2.13901
O          0.43096       -0.29690        2.30343
H          3.64659       -0.28880        1.38819
H          2.87356       -1.19514        2.71295
H          1.79915       -2.71933        1.17651
H          3.20495       -2.27759        0.16339
H         -2.50356       -1.85477       -0.54666
H         -1.25152       -1.68422        0.72259
O         -2.74301       -0.34189        0.85503
C         -3.88491        0.13207        0.30655
O         -4.23024       -0.11781       -0.83626
H         -4.22093        1.03024        2.12196
N         -4.55768        0.89564        1.17678
H         -5.44534        1.29209        0.89536
C         -0.21608        0.74977       -0.19808
C          1.19976        0.20486        0.13893
N          2.06865        1.08914       -0.61607
C          1.38330        2.08664       -1.18904
N          0.07888        1.91935       -1.00582
H         -0.73193        1.04981        0.72243
N          1.93414        3.08546       -1.84702
H          3.07042        1.13812       -0.45383
H         -0.63379        2.51939       -1.40693
H          1.35428        3.80953       -2.25690
H          2.94123        3.13652       -1.95458
H          1.18478        2.00877        2.15084
H          0.67670       -0.55573        3.20223
