40
STX_46_solv.log	Energy: -675523.4500026
C         -0.91428        0.85454       -0.89540
N         -1.27664       -0.51448       -1.19893
C         -0.43154       -1.53905       -1.13736
C         -2.15108        1.66165       -0.53124
H         -0.48939        1.33145       -1.79488
N         -0.85539       -2.75361       -1.46344
H         -1.80537       -2.88215       -1.79435
H         -0.23675       -3.55480       -1.46193
H         -2.26946       -0.70875       -1.35332
N          0.84279       -1.35129       -0.74367
C          2.04525       -0.68870        1.14634
C          2.75557       -1.89413        0.54299
C          1.70035       -2.49932       -0.37104
O          2.96245        0.20011        1.69256
O          1.05671       -1.05697        2.05708
H          3.64111       -1.56156       -0.01537
H          3.08386       -2.59354        1.32242
H          1.09842       -3.23965        0.17483
H          2.12616       -2.97316       -1.26482
H         -1.85729        2.70004       -0.33454
H         -2.86174        1.65572       -1.36883
O         -2.78210        1.19836        0.65485
C         -3.74843        0.26384        0.53396
O         -4.02879       -0.27576       -0.52911
H         -5.07103       -0.68333        1.74625
N         -4.33478        0.01024        1.70631
H         -4.07615        0.52347        2.54012
C          0.15455        0.87530        0.20708
C          1.27532       -0.12870       -0.09904
N          2.15886        0.69533       -0.91902
C          1.99355        1.98215       -0.56883
N          0.89814        2.12387        0.18748
H         -0.29342        0.67741        1.18666
N          2.79560        2.96038       -0.92213
H          3.07266        0.35805       -1.21345
H          0.45469        3.02699        0.32844
H          2.58869        3.91662       -0.65243
H          3.62897        2.76939       -1.46839
H          2.47829        0.84990        2.22103
H          1.44600       -1.65646        2.70863
