40
STX_75_solv.log	Energy: -675519.9624242
C         -0.37425        0.82378        1.60045
N          0.51385        1.94070        1.28892
C          0.77770        2.17575       -0.00761
C         -1.76984        1.15170        1.06009
H         -0.42177        0.72933        2.69203
N          0.98980        3.39826       -0.45927
H          0.84421        4.19828        0.14826
H          1.35573        3.55696       -1.39194
H          0.49624        2.74382        1.91164
N          0.81206        1.11479       -0.82601
C          0.45377       -1.11986       -1.50781
C          0.85862       -0.27455       -2.72022
C          0.64149        1.16928       -2.28702
O          1.01098       -2.39164       -1.46047
O         -0.91239       -1.36068       -1.42914
H          1.92422       -0.44729       -2.93445
H          0.27250       -0.54820       -3.60506
H         -0.37251        1.53071       -2.51590
H          1.37098        1.84618       -2.75052
H         -2.14825        2.04331        1.57949
H         -1.73210        1.36503       -0.01655
O         -2.66320        0.08057        1.30141
C         -3.36352       -0.40660        0.25561
O         -3.25073        0.01910       -0.88741
H         -4.22866       -1.68987        1.59897
N         -4.17361       -1.39895        0.63047
H         -4.75677       -1.84430       -0.06689
C          0.21000       -0.47320        1.03753
C          0.95372       -0.23150       -0.30121
N          2.33373       -0.51860        0.05174
C          2.43394       -1.03090        1.28408
N          1.24776       -1.03322        1.88395
H         -0.59563       -1.20286        0.89343
N          3.55587       -1.46478        1.82028
H          3.07818       -0.58446       -0.63646
H          1.11022       -1.26754        2.86140
H          3.56325       -1.82876        2.76688
H          4.42376       -1.42474        1.29697
H          1.91265       -2.36897       -1.80294
H         -1.45940       -0.55620       -1.43749
