40
STX_82_solv.log	Energy: -675522.4533231
C         -1.13064       -0.08043        0.26611
N         -0.94739       -1.49150       -0.00153
C          0.18011       -2.01793       -0.47415
C         -2.24275        0.10374        1.29002
H         -1.41955        0.43349       -0.66506
N          0.21846       -3.30099       -0.80860
H         -0.61896       -3.86831       -0.73182
H          1.04382       -3.71864       -1.22197
H         -1.78432       -2.06990       -0.02012
N          1.28893       -1.26519       -0.58398
C          2.77813        0.09158        0.59321
C          3.58587       -0.77214       -0.36948
C          2.62079       -1.88613       -0.74456
O          3.21437        1.39716        0.74165
O          2.71662       -0.58609        1.81381
H          3.86627       -0.17139       -1.24502
H          4.49801       -1.14950        0.10780
H          2.70742       -2.73792       -0.05486
H          2.76261       -2.24207       -1.77361
H         -1.98066       -0.39940        2.22971
H         -2.40076        1.17350        1.48273
O         -3.44475       -0.50563        0.84874
C         -4.20623        0.18935       -0.03060
O         -3.91487        1.30535       -0.42553
H         -5.47386       -1.42424        0.00661
N         -5.28933       -0.51053       -0.38837
H         -5.95358       -0.09220       -1.02714
C          0.18131        0.53855        0.76658
C          1.36953        0.09549       -0.10163
N          1.31197        1.10563       -1.15765
C          0.76167        2.22307       -0.65247
N          0.19206        1.97123        0.53267
H          0.33989        0.29093        1.82297
N          0.77886        3.39501       -1.24470
H          2.04672        1.17211       -1.85806
H         -0.50548        2.59168        0.93375
H          0.31097        4.19087       -0.82322
H          1.26176        3.51598       -2.12875
H          4.15286        1.38279        0.97326
H          2.31446       -0.00053        2.47033
