40
STX_16_solv.log	Energy: -675521.0956122
C         -0.37152       -0.58947       -1.69679
N          0.50844       -1.74577       -1.55893
C          0.79203       -2.15997       -0.31200
C         -1.76371       -0.97164       -1.18635
H         -0.43285       -0.34143       -2.76303
N          0.99123       -3.43660       -0.04033
H          0.84082       -4.13816       -0.75856
H          1.37409       -3.73271        0.85091
H          0.45914       -2.45950       -2.28080
N          0.85294       -1.22798        0.64809
C          0.44182        0.86033        1.63553
C          0.88328       -0.12252        2.72428
C          0.76337       -1.50476        2.09080
O          1.00939        2.11931        1.72017
O         -0.94328        1.03624        1.58044
H          1.93093        0.09564        2.97283
H          0.27506       -0.01603        3.63052
H         -0.20242       -1.98810        2.30199
H          1.57240       -2.17050        2.42202
H         -2.15926       -1.78488       -1.81175
H         -1.71598       -1.32429       -0.14718
O         -2.63426        0.13949       -1.27570
C         -3.39571        0.43740       -0.19999
O         -3.39132       -0.21754        0.83229
H         -4.10561        2.00463       -1.31479
N         -4.13771        1.52672       -0.42256
H         -4.77052        1.84508        0.30027
C          0.23070        0.60873       -0.96443
C          0.97637        0.18503        0.32814
N          2.35227        0.54736        0.03748
C          2.44453        1.23922       -1.10644
N          1.27205        1.26909       -1.72946
H         -0.56939        1.31623       -0.71650
N          3.55195        1.79992       -1.54690
H          3.05462        0.61845        0.76809
H          1.12416        1.68437       -2.64280
H          3.55711        2.30157       -2.42844
H          4.41245        1.72162       -1.01593
H          0.72763        2.51872        2.55446
H         -1.44179        0.20600        1.63279
