40
STX_41_solv.log	Energy: -675522.1557832
C         -0.94445        0.16585       -1.14934
N         -0.76092       -1.25801       -1.34447
C          0.38391       -1.90165       -1.13094
C         -2.41177        0.48653       -0.95363
H         -0.62380        0.70513       -2.05607
N          0.47543       -3.19146       -1.42971
H         -0.31396       -3.66945       -1.85107
H          1.34881       -3.69722       -1.34436
H         -1.51128       -1.77036       -1.80090
N          1.43846       -1.26097       -0.59311
C          2.07880       -0.07823        1.30932
C          3.22430       -1.01687        0.93622
C          2.56061       -2.01921        0.00375
O          2.47130        1.16566        1.78232
O          1.16014       -0.70648        2.15577
H          4.01379       -0.44897        0.42486
H          3.66100       -1.49525        1.82279
H          2.15873       -2.87426        0.56567
H          3.23869       -2.38995       -0.77599
H         -2.54008        1.57623       -0.87544
H         -2.99051        0.13635       -1.82227
O         -2.85920       -0.15721        0.22763
C         -4.12979        0.08992        0.60511
O         -4.87301        0.82975       -0.01751
H         -5.37646       -0.47934        2.10594
N         -4.44276       -0.57228        1.72722
H         -3.77300       -1.18327        2.17752
C         -0.08306        0.64414        0.02816
C          1.34360        0.08200       -0.05733
N          1.98610        1.10049       -0.88287
C          1.34242        2.26787       -0.70125
N          0.17707        2.06861       -0.07646
H         -0.54825        0.37943        0.98267
N          1.79801        3.43714       -1.08956
H          2.99146        1.09113       -1.03871
H         -0.56711        2.76011       -0.08408
H          1.24343        4.27532       -0.94968
H          2.71070        3.51399       -1.52593
H          3.15756        1.04339        2.45168
H          1.63919       -1.11364        2.88988
