40
STX_77_solv.log	Energy: -675522.0088895
C         -1.08176       -0.28288       -0.94164
N         -0.25431       -1.13077       -1.78916
C          0.79995       -1.76462       -1.25093
C         -1.90793       -1.14875        0.01766
H         -1.77234        0.25890       -1.59904
N          1.21277       -2.92755       -1.72510
H          0.67019       -3.40645       -2.43664
H          2.09487       -3.33403       -1.43396
H         -0.70925       -1.58307       -2.57747
N          1.42198       -1.18098       -0.22106
C          1.53209        0.18514        1.66010
C          2.71312       -0.78489        1.71061
C          2.34021       -1.86888        0.70286
O          1.76859        1.45676        2.17345
O          0.40482       -0.33529        2.28266
H          3.63272       -0.26481        1.40403
H          2.86043       -1.18113        2.72315
H          1.81123       -2.71058        1.17225
H          3.22231       -2.25408        0.17281
H         -2.51017       -1.85791       -0.56676
H         -1.25324       -1.70588        0.69987
O         -2.73627       -0.35636        0.84927
C         -3.87291        0.13653        0.30716
O         -4.22379       -0.09982       -0.83689
H         -4.19013        1.02925        2.12856
N         -4.53441        0.90092        1.18522
H         -5.41556        1.31440        0.90800
C         -0.22225        0.74543       -0.20622
C          1.19122        0.20588        0.13914
N          2.06223        1.10711       -0.59305
C          1.37661        2.09559       -1.18008
N          0.07178        1.91396       -1.01607
H         -0.74108        1.04606        0.71210
N          1.92670        3.09798       -1.83337
H          3.07137        1.12382       -0.47640
H         -0.64068        2.52368       -1.40236
H          1.34501        3.81365       -2.25525
H          2.93476        3.16191       -1.92291
H          2.68465        1.71601        2.01265
H          0.64076       -0.58793        3.18576
