40
STX_40_solv.log	Energy: -675522.6221670
C         -0.91909        0.85556       -0.88865
N         -1.28327       -0.51209       -1.19603
C         -0.44034       -1.53814       -1.13444
C         -2.15448        1.66381       -0.52261
H         -0.49429        1.33403       -1.78730
N         -0.86709       -2.75215       -1.45897
H         -1.81795       -2.87888       -1.78812
H         -0.24961       -3.55426       -1.46042
H         -2.27622       -0.70432       -1.35213
N          0.83500       -1.35309       -0.74119
C          2.04983       -0.68268        1.14171
C          2.74979       -1.90090        0.54177
C          1.68354       -2.50524       -0.35932
O          2.89556        0.25850        1.72266
O          1.07150       -1.04177        2.06100
H          3.63294       -1.58470       -0.03261
H          3.08008       -2.59620        1.32399
H          1.07759       -3.23380        0.19777
H          2.10050       -2.99309       -1.24977
H         -1.85843        2.70090       -0.32244
H         -2.86476        1.66206       -1.36054
O         -2.78742        1.19816        0.66156
C         -3.75563        0.26626        0.53660
O         -4.03576       -0.26959       -0.52849
H         -4.08536        0.52029        2.54315
N         -4.34437        0.01058        1.70731
H         -5.08195       -0.68174        1.74416
C          0.15143        0.87366        0.21261
C          1.27044       -0.13012       -0.09974
N          2.15132        0.69680       -0.92048
C          1.98870        1.98254       -0.56000
N          0.89187        2.12298        0.19073
H         -0.29372        0.67343        1.19283
N          2.79593        2.95980       -0.90592
H          3.06250        0.36002       -1.22414
H          0.45291        3.02576        0.34487
H          2.59247        3.91514       -0.63072
H          3.62852        2.76912       -1.45327
H          3.77317        0.21027        1.32320
H          1.46965       -1.62469        2.72190
