40
STX_31_solv.log	Energy: -675522.8619070
C         -0.26895       -1.89511       -0.58963
N         -0.55873       -1.88266        0.84069
C         -0.73383       -0.73300        1.50791
C         -1.51938       -1.72023       -1.44680
H          0.12004       -2.89455       -0.82268
N         -1.48927       -0.68919        2.59239
H         -2.06849       -1.48500        2.83916
H         -1.52074        0.13370        3.18318
H         -1.06369       -2.68964        1.19792
N         -0.10630        0.36164        1.06487
C          0.91051        1.75153       -0.49371
C          0.64760        2.57365        0.76647
C         -0.32862        1.72327        1.57782
O          2.10956        1.98737       -1.14599
O         -0.18709        1.94862       -1.33193
H          1.59232        2.71482        1.30747
H          0.23814        3.55860        0.51346
H         -1.37729        2.00384        1.40877
H         -0.11498        1.77804        2.65465
H         -1.27216       -1.95904       -2.48906
H         -2.31292       -2.39689       -1.10309
O         -1.96536       -0.37562       -1.43792
C         -2.95253       -0.00479       -0.59460
O         -3.64139       -0.79651        0.02424
H         -2.27180        1.87924       -0.89379
N         -3.07210        1.33445       -0.57756
H         -3.69041        1.73585        0.11740
C          0.83303       -0.87633       -0.93594
C          0.95534        0.29590        0.08321
N          2.24037        0.02328        0.71302
C          2.91943       -0.92299        0.05393
N          2.16135       -1.46078       -0.89524
H          0.64050       -0.49246       -1.94556
N          4.16129       -1.26889        0.31899
H          2.70704        0.70723        1.30215
H          2.42670       -2.27556       -1.43874
H          4.60810       -2.01545       -0.20247
H          4.66996       -0.81598        1.07053
H          2.13470        2.91757       -1.40888
H         -0.10264        1.40838       -2.12973
