40
STX_85_solv.log	Energy: -675522.8412871
C         -1.09658        0.38906        0.06674
N         -1.19565       -1.04007       -0.15010
C         -0.18048       -1.81076       -0.52039
C         -2.21313        0.87551        0.98403
H         -1.19542        0.92041       -0.89532
N         -0.38945       -3.09833       -0.76926
H         -1.33053       -3.47389       -0.72649
H          0.35390       -3.70634       -1.08910
H         -2.13649       -1.44216       -0.06328
N          1.06333       -1.30235       -0.62363
C          2.70807       -0.28916        0.68937
C          3.39511       -1.30375       -0.21685
C          2.24815       -2.18673       -0.68680
O          3.51792        0.82147        0.88870
O          2.28013       -0.85467        1.88913
H          3.88059       -0.78323       -1.05351
H          4.16143       -1.86881        0.32902
H          2.10455       -3.03316       -0.00006
H          2.39318       -2.57169       -1.70447
H         -2.34740        0.18617        1.83030
H         -1.95330        1.86492        1.37893
O         -3.44467        1.07700        0.30040
C         -4.25808        0.02246        0.10647
O         -3.92645       -1.13429        0.34344
H         -6.13169       -0.31618       -0.59376
N         -5.44546        0.39559       -0.37554
H         -5.66637        1.37363       -0.51824
C          0.28157        0.71788        0.66082
C          1.39968        0.01103       -0.12084
N          1.66191        0.99660       -1.16665
C          1.34316        2.21476       -0.69859
N          0.63511        2.10916        0.43288
H          0.32190        0.45443        1.72382
N          1.67749        3.34763       -1.27309
H          2.43740        0.88349       -1.81550
H          0.08557        2.88178        0.79776
H          1.37247        4.23113       -0.87765
H          2.25142        3.34996       -2.10992
H          3.13078        1.35735        1.59528
H          3.03679       -1.28340        2.31273
