40
STX_21_solv.log	Energy: -675524.0877468
C          0.63670        1.37262       -0.61822
N          0.92812        1.25311        0.80473
C          0.68912        0.09348        1.43315
C          1.60504        0.55901       -1.48043
H          0.75086        2.43277       -0.87535
N          1.37732       -0.25428        2.50682
H          2.22390        0.25033        2.74874
H          1.12162       -1.06629        3.05671
H          1.66456        1.84284        1.18170
N         -0.28061       -0.69170        0.94916
C         -1.65032       -1.53075       -0.74104
C         -1.58186       -2.56746        0.37512
C         -0.38661       -2.13510        1.21792
O         -2.91327       -1.50318       -1.31201
O         -0.64855       -1.71028       -1.69473
H         -2.51229       -2.52856        0.95811
H         -1.46776       -3.58093       -0.02989
H          0.54770       -2.62222        0.90370
H         -0.55178       -2.33351        2.28555
H          1.43734       -0.51788       -1.36031
H          1.45698        0.82569       -2.53467
O          2.94039        0.89046       -1.14316
C          3.62636        0.02721       -0.35984
O          3.19463       -1.05997       -0.01243
H          5.13732        1.41427       -0.40098
N          4.82209        0.52862       -0.02452
H          5.46536       -0.05369        0.49678
C         -0.81056        0.96715       -0.89248
C         -1.28154       -0.21125        0.00836
N         -2.43305        0.35324        0.68657
C         -2.68247        1.60737        0.29513
N         -1.75581        2.01832       -0.56343
H         -0.91165        0.68859       -1.95052
N         -3.70203        2.32935        0.71146
H         -3.09592       -0.20756        1.21334
H         -1.74072        2.94070       -0.98519
H         -3.82911        3.27706        0.37370
H         -4.35730        1.95173        1.38689
H         -2.89484       -0.88559       -2.05751
H         -0.70519       -2.61431       -2.03376
