40
STX_87_solv.log	Energy: -675522.1315174
C         -0.33000       -1.76293       -0.58656
N         -0.62611       -1.72493        0.84470
C         -0.79929       -0.54006        1.44572
C         -1.57847       -1.52523       -1.42932
H         -0.00316       -2.78428       -0.81853
N         -1.65206       -0.39487        2.44527
H         -2.34318       -1.11488        2.63169
H         -1.66351        0.45188        3.00417
H         -1.17043       -2.50216        1.21079
N         -0.06342        0.49648        1.01735
C          1.33295        1.72990       -0.43404
C         -0.02288        2.40811       -0.30094
C         -0.52823        1.89215        1.03388
O          2.28410        2.29251        0.42106
O          1.76268        1.74696       -1.75441
H          0.07294        3.50086       -0.33867
H         -0.67863        2.06986       -1.11538
H         -1.62107        1.91958        1.11633
H         -0.08998        2.43902        1.88052
H         -1.31825       -1.61583       -2.49222
H         -2.33976       -2.27544       -1.18115
O         -2.10166       -0.21945       -1.23661
C         -3.24626       -0.07326       -0.53039
O         -3.82304       -0.99726        0.01565
H         -4.44127        1.46667        0.04044
N         -3.64454        1.20680       -0.52741
H         -3.06747        1.92788       -0.94420
C          0.83240       -0.81352       -0.93413
C          1.07429        0.28220        0.14086
N          2.23156       -0.23813        0.84957
C          2.84512       -1.18204        0.11829
N          2.11317       -1.50136       -0.94723
H          0.64564       -0.34559       -1.90716
N          4.00933       -1.71329        0.42230
H          2.76405        0.38444        1.45192
H          2.28513       -2.33302       -1.50402
H          4.41422       -2.43231       -0.16767
H          4.51514       -1.40372        1.24531
H          2.33735        3.24006        0.23467
H          2.67250        1.41803       -1.78438
