40
STX_9_solv.log	Energy: -675522.9369509
C         -0.73086        0.53634        1.46409
N          0.34952        1.44512        1.81247
C          1.22310        1.86083        0.88424
C         -1.85954        1.28290        0.74338
H         -1.14965        0.15478        2.40416
N          1.83626        3.02721        1.00900
H          1.57428        3.65963        1.75802
H          2.62769        3.27221        0.42438
H          0.19786        2.05879        2.60846
N          1.46810        1.07367       -0.16757
C          0.68583       -0.37086       -1.81235
C          1.90030        0.36644       -2.37967
C          2.10181        1.53628       -1.41686
O          0.50300       -1.68398       -2.23951
O         -0.43253        0.36549       -2.15107
H          2.77171       -0.30274       -2.38542
H          1.70653        0.69705       -3.40648
H          1.58885        2.44635       -1.75880
H          3.16443        1.76691       -1.25655
H         -2.04292        2.22638        1.27223
H         -1.60116        1.50481       -0.30025
O         -3.07283        0.54916        0.82785
C         -3.49502       -0.19316       -0.20807
O         -2.85218       -0.36484       -1.23886
H         -5.19235       -0.53271        0.88775
N         -4.69694       -0.72404        0.02546
H         -5.11395       -1.31950       -0.67914
C         -0.17400       -0.65946        0.68912
C          0.98450       -0.29025       -0.27469
N          2.01249       -1.25382        0.10107
C          1.67197       -1.95019        1.19460
N          0.44053       -1.63347        1.57425
H         -0.98126       -1.14179        0.12192
N          2.45182       -2.82518        1.79344
H          2.96614       -1.21050       -0.24772
H         -0.06259       -2.10280        2.32011
H          2.12417       -3.32801        2.61130
H          3.38517       -3.00616        1.44035
H          1.25155       -2.22254       -1.94853
H         -1.25905       -0.02636       -1.79279
