40
STX_33_solv.log	Energy: -675522.7010575
C         -0.24008       -1.70071       -0.82847
N         -0.55188       -1.86842        0.58586
C         -0.68877       -0.77959        1.35777
C         -1.46440       -1.25537       -1.63147
H          0.02568       -2.68849       -1.22682
N         -1.49490       -0.78475        2.40571
H         -2.14296       -1.55305        2.54616
H         -1.49278       -0.02247        3.07416
H         -1.11784       -2.67495        0.83724
N          0.01292        0.31872        1.05195
C          0.98830        1.76579       -0.49446
C          0.59800        2.57864        0.74398
C         -0.33736        1.66646        1.53149
O          2.20340        2.10709       -1.05635
O          0.01875        1.82853       -1.50384
H          1.50761        2.79454        1.32116
H          0.12502        3.52669        0.46164
H         -1.39806        1.85427        1.31079
H         -0.18056        1.75635        2.61531
H         -1.17438       -1.07151       -2.67375
H         -2.22040       -2.04917       -1.60167
O         -2.03447       -0.04601       -1.13991
C         -3.18389       -0.10923       -0.41758
O         -3.70895       -1.15788       -0.09496
H         -3.11163        1.94090       -0.41166
N         -3.63206        1.11846       -0.12931
H         -4.45011        1.21472        0.45942
C          0.99760       -0.80962       -0.98706
C          1.09219        0.31662        0.07881
N          2.37519        0.05946        0.70277
C          3.00626       -0.97481        0.13801
N          2.23287       -1.54383       -0.78172
H          0.98482       -0.35978       -1.98852
N          4.21963       -1.37190        0.46052
H          2.83363        0.72381        1.31882
H          2.51944       -2.32826       -1.35742
H          4.64007       -2.16917       -0.00455
H          4.73500       -0.89696        1.19361
H          2.16905        3.04126       -1.30395
H         -0.82103        1.42425       -1.22597
