40
STX_36_solv.log	Energy: -675521.9611172
C         -0.94924        0.17250       -1.15078
N         -0.77771       -1.25282       -1.34939
C          0.35593       -1.91174       -1.12420
C         -2.41371        0.50356       -0.95114
H         -0.62750        0.71047       -2.05777
N          0.43157       -3.20470       -1.41353
H         -0.36185       -3.67571       -1.83510
H          1.29807       -3.72083       -1.31978
H         -1.53195       -1.75715       -1.80833
N          1.41545       -1.28334       -0.58174
C          2.09087       -0.07825        1.30647
C          3.21175       -1.04837        0.93778
C          2.51772       -2.05510        0.03438
O          2.51268        1.14239        1.82561
O          1.16928       -0.65114        2.17582
H          4.01028       -0.51512        0.40088
H          3.64692       -1.51487        1.83065
H          2.09333       -2.88296        0.62016
H          3.18358       -2.46601       -0.73575
H         -2.53373        1.59415       -0.87198
H         -2.99724        0.15802       -1.81844
O         -2.86282       -0.13759        0.23095
C         -4.13244        0.11385        0.60858
O         -4.87363        0.85534       -0.01452
H         -5.38018       -0.44937        2.11083
N         -4.44718       -0.54630        1.73142
H         -3.77890       -1.15822        2.18266
C         -0.07978        0.64369        0.02470
C          1.33839        0.06438       -0.06176
N          1.99089        1.07123       -0.89603
C          1.36570        2.24805       -0.70888
N          0.19835        2.06457       -0.08347
H         -0.54609        0.38718        0.98100
N          1.83867        3.41157       -1.09426
H          2.99453        1.04594       -1.06288
H         -0.53512        2.76733       -0.08607
H          1.29693        4.25769       -0.95216
H          2.75066        3.47554       -1.53411
H          3.43005        1.31266        1.57813
H          1.64267       -0.97757        2.95340
