40
STX_78_solv.log	Energy: -675522.6563224
C         -0.13697       -1.88730       -0.64811
N         -0.02354       -2.16134        0.78308
C         -0.27093       -1.17158        1.65836
C         -1.59572       -1.82007       -1.08342
H          0.29753       -2.74463       -1.17788
N         -0.83652       -1.42302        2.82694
H         -1.19938       -2.34994        3.02439
H         -0.87596       -0.72278        3.55892
H         -0.30487       -3.09374        1.07600
N          0.10129        0.06809        1.32381
C          0.61168        1.82313       -0.13726
C          0.39878        2.39537        1.26349
C         -0.35908        1.29419        1.99264
O          1.61150        2.43452       -0.89055
O         -0.55690        1.81895       -0.88113
H          1.37342        2.57782        1.73998
H         -0.15563        3.34178        1.22846
H         -1.44754        1.38690        1.86868
H         -0.11954        1.27730        3.06401
H         -1.66055       -1.57421       -2.15082
H         -2.06561       -2.79939       -0.91402
O         -2.30434       -0.86668       -0.30761
C         -2.95646        0.13655       -0.93272
O         -2.95716        0.29370       -2.14065
H         -3.51271        0.74228        0.94617
N         -3.62345        0.89462       -0.04902
H         -4.08011        1.73521       -0.37946
C          0.68952       -0.64779       -1.02739
C          0.92769        0.31999        0.16360
N          2.33942        0.12404        0.45054
C          2.94405       -0.54121       -0.54262
N          2.04826       -0.98589       -1.41762
H          0.18339       -0.11651       -1.84093
N          4.24387       -0.72995       -0.62610
H          2.85106        0.73855        1.07843
H          2.26904       -1.63256       -2.16790
H          4.63674       -1.25987       -1.39656
H          4.86304       -0.35378        0.08337
H          2.29692        2.79056       -0.31110
H         -0.95462        2.69956       -0.85102
