40
STX_52_solv.log	Energy: -675524.0645603
C          0.90590        0.71350       -1.19999
N          0.27689        2.00044       -0.97617
C         -1.01984        2.11730       -0.68693
C          2.42099        0.83276       -1.25016
H          0.60380        0.32734       -2.18875
N         -1.58482        3.31686       -0.67654
H         -1.04076        4.13367       -0.93364
H         -2.57474        3.43761       -0.49955
H          0.76511        2.83592       -1.28882
N         -1.74999        1.02516       -0.38681
C         -1.81502       -0.64175        1.24742
C         -3.24516       -0.17166        1.01032
C         -3.06044        1.15745        0.29179
O         -1.78516       -1.99973        1.53768
O         -1.15771        0.12048        2.21174
H         -3.77780       -0.90471        0.38918
H         -3.78945       -0.06181        1.95690
H         -3.00820        1.98166        1.01701
H         -3.85546        1.36862       -0.43465
H          2.83815       -0.09073       -1.67056
H          2.69783        1.66637       -1.90910
O          3.00324        1.10490        0.01404
C          3.47663        0.05577        0.72275
O          3.40101       -1.10261        0.33867
H          4.06365        1.43575        2.12135
N          4.02029        0.45404        1.87677
H          4.41050       -0.24140        2.50012
C          0.39426       -0.25355       -0.12527
C         -1.13865       -0.26092       -0.11381
N         -1.40463       -1.28447       -1.12237
C         -0.36599       -2.14390       -1.13925
N          0.67445       -1.62918       -0.48041
H          0.78493        0.00966        0.86428
N         -0.38124       -3.31841       -1.72728
H         -2.34848       -1.62893       -1.28181
H          1.63210       -1.97460       -0.52192
H          0.45051       -3.89964       -1.73097
H         -1.22498       -3.65954       -2.17575
H         -0.90021       -2.22320        1.85892
H         -1.69032        0.12265        3.01924
