40
STX_15_solv.log	Energy: -675523.1933324
C         -0.63506       -1.37617       -0.60895
N         -0.92487       -1.24656        0.81362
C         -0.69043       -0.08041        1.43171
C         -1.60593       -0.57055       -1.47577
H         -0.74712       -2.43846       -0.85799
N         -1.38047        0.27482        2.50169
H         -2.22536       -0.23068        2.74773
H         -1.12669        1.09152        3.04549
H         -1.66004       -1.83485        1.19533
N          0.27799        0.70298        0.94183
C          1.65448        1.51126       -0.74742
C          1.58453        2.56835        0.35476
C          0.38225        2.14934        1.19560
O          2.90133        1.34532       -1.33354
O          0.64794        1.69701       -1.69927
H          2.51060        2.52822        0.94427
H          1.48011        3.58020       -0.05875
H         -0.54978        2.63367        0.87065
H          0.54157        2.35920        2.26198
H         -1.43952        0.50736       -1.36284
H         -1.45769       -0.84370       -2.52835
O         -2.94056       -0.90204       -1.13574
C         -3.62912       -0.03270       -0.36167
O         -3.19940        1.05811       -0.02309
H         -5.46997        0.05386        0.49022
N         -4.82490       -0.53253       -0.02419
H         -5.13850       -1.42155       -0.39395
C          0.81036       -0.96801       -0.88942
C          1.28373        0.20921        0.01312
N          2.42254       -0.36281        0.70669
C          2.68328       -1.60929        0.29597
N          1.76044       -2.01675       -0.56796
H          0.90605       -0.68502       -1.94589
N          3.70786       -2.32892        0.70350
H          3.09329        0.20124        1.22005
H          1.75226       -2.93469       -0.99959
H          3.84364       -3.27007        0.35104
H          4.36164       -1.95442        1.38207
H          3.18309        2.19535       -1.69813
H          0.56933        2.63786       -1.90400
