40
STX_24_solv.log	Energy: -675522.4929754
C          1.04997        0.73342       -0.03181
N          0.96697        0.22989        1.33316
C          0.20971       -0.85135        1.57710
C          1.81305       -0.22480       -0.94970
H          1.59396        1.68443        0.00847
N          0.51488       -1.69033        2.55259
H          1.38814       -1.58098        3.05791
H         -0.13444       -2.40646        2.85918
H          1.79381        0.34535        1.91319
N         -0.86230       -1.05420        0.80375
C         -2.04132       -0.92070       -1.19185
C         -2.63927       -2.06214       -0.37243
C         -1.60481       -2.32294        0.72153
O         -2.93191       -0.14022       -1.90839
O         -1.05673       -1.48089       -2.01166
H         -3.59554       -1.73206        0.05484
H         -2.81953       -2.94380       -0.99852
H         -0.90683       -3.12931        0.45568
H         -2.07929       -2.56672        1.68251
H          1.26187       -1.16410       -1.08204
H          1.95041        0.24527       -1.93340
O          3.05951       -0.59033       -0.38389
C          4.07062        0.30175       -0.47784
O          3.96236        1.37647       -1.04502
H          6.01745        0.40601        0.09321
N          5.17505       -0.15395        0.12724
H          5.19879       -1.07748        0.54152
C         -0.35167        1.01439       -0.56717
C         -1.39581       -0.03205       -0.08293
N         -2.37629        0.79826        0.59173
C         -2.05960        2.09502        0.54617
N         -0.89523        2.26450       -0.07193
H         -0.31713        1.04154       -1.66523
N         -2.79940        3.06185        1.04835
H         -3.26535        0.44802        0.93493
H         -0.45507        3.16586       -0.22153
H         -2.49611        4.02720        0.97950
H         -3.67069        2.84813        1.52091
H         -3.40205       -0.70880       -2.53380
H         -0.69912       -0.79800       -2.59637
