40
STX_49_solv.log	Energy: -675523.2708110
C          0.92853        0.68501       -1.20668
N          0.33091        1.98850       -0.99251
C         -0.95879        2.14109       -0.69091
C          2.44532        0.77057       -1.25692
H          0.61850        0.29984       -2.19327
N         -1.49168        3.35535       -0.67694
H         -0.92884        4.15644       -0.94308
H         -2.47868        3.50160       -0.50239
H          0.83905        2.80872       -1.31376
N         -1.71544        1.07021       -0.37858
C         -1.81995       -0.61691        1.23874
C         -3.23658       -0.08690        1.02268
C         -3.00820        1.24485        0.32362
O         -1.73744       -1.97610        1.52520
O         -1.13284        0.10157        2.21161
H         -3.80474       -0.78270        0.38801
H         -3.76989        0.02628        1.97501
H         -2.91190        2.05537        1.05973
H         -3.80589        1.49835       -0.38630
H          2.84353       -0.16848       -1.66078
H          2.74022        1.58718       -1.92922
O          3.03104        1.05240        0.00347
C          3.47248        0.00491        0.73480
O          3.37123       -1.15782        0.37091
H          4.08232        1.39593        2.11260
N          4.01683        0.41116        1.88593
H          4.38769       -0.28153        2.52395
C          0.39377       -0.26532       -0.12789
C         -1.13815       -0.23322       -0.11733
N         -1.42872       -1.24665       -1.12997
C         -0.41667       -2.14012       -1.12886
N          0.63911       -1.64673       -0.48227
H          0.78964       -0.01061        0.86157
N         -0.47270       -3.32433       -1.69575
H         -2.38135       -1.56747       -1.28865
H          1.58343       -2.02716       -0.50430
H          0.33999       -3.93176       -1.69303
H         -1.32579       -3.64050       -2.14449
H         -2.55052       -2.42283        1.25860
H         -1.64142        0.06659        3.03342
