40
STX_86_solv.log	Energy: -675519.2204884
C         -0.22273       -1.81022       -0.50970
N         -0.26100       -1.89607        0.94481
C         -0.37420       -0.75965        1.65213
C         -1.59732       -1.48349       -1.08568
H          0.02799       -2.80664       -0.89483
N         -1.02706       -0.73735        2.80066
H         -1.55280       -1.55103        3.10298
H         -0.97511        0.06284        3.42138
H         -0.70374       -2.72051        1.34261
N          0.20389        0.35037        1.17605
C          0.86469        1.73759       -0.58956
C          0.59747        2.60494        0.64228
C         -0.20861        1.70762        1.57266
O          1.97994        2.09255       -1.32307
O         -0.22944        1.70336       -1.46469
H          1.56050        2.87340        1.09872
H          0.06343        3.52393        0.37267
H         -1.29377        1.80540        1.41466
H          0.01856        1.90181        2.62948
H         -1.54151       -1.40926       -2.18211
H         -2.28366       -2.29664       -0.80765
O         -2.05271       -0.25424       -0.53012
C         -3.35781        0.09401       -0.46535
O         -3.64532        1.09032        0.17450
H         -3.96421       -1.42390       -1.74813
N         -4.23521       -0.68685       -1.10888
H         -5.20850       -0.40545       -1.09124
C          0.89795       -0.86006       -0.94186
C          1.11268        0.32731        0.04110
N          2.48851        0.14738        0.46302
C          3.07796       -0.86455       -0.18253
N          2.19756       -1.50627       -0.94361
H          0.66761       -0.46643       -1.94033
N          4.35059       -1.18161       -0.06552
H          3.01256        0.87589        0.93866
H          2.42489       -2.30882       -1.52077
H          4.73288       -1.96634       -0.58185
H          4.95618       -0.65490        0.55446
H          1.88524        3.01771       -1.58752
H         -1.00764        1.30490       -1.04079
