40
STX_43_solv.log	Energy: -675521.8209880
C         -0.64938       -1.34727       -0.61343
N         -0.93100       -1.20771        0.81364
C         -0.75457       -0.00943        1.38425
C         -1.64103       -0.56962       -1.48226
H         -0.74191       -2.41428       -0.84853
N         -1.47458        0.38200        2.41857
H         -2.32933       -0.11065        2.65845
H         -1.24276        1.23386        2.91811
H         -1.63232       -1.82272        1.21723
N          0.20333        0.77719        0.86717
C          1.89750        1.48431       -0.61530
C          0.75676        2.49146       -0.59529
C          0.10108        2.24013        0.75272
O          2.94022        1.86485        0.23419
O          2.34691        1.27373       -1.91183
H          1.12962        3.51707       -0.71415
H          0.05908        2.26373       -1.41362
H         -0.95370        2.53876        0.77975
H          0.63971        2.73880        1.57096
H         -1.48388        0.51414       -1.39645
H         -1.50188       -0.86371       -2.53044
O         -2.96830       -0.90087       -1.11845
C         -3.66887       -0.00521       -0.38509
O         -3.26172        1.11329       -0.11747
H         -5.49513        0.08198        0.49793
N         -4.84774       -0.51219       -0.00444
H         -5.13341       -1.43945       -0.29416
C          0.78139       -0.89816       -0.92490
C          1.27189        0.20445        0.06085
N          2.23951       -0.51553        0.86822
C          2.53875       -1.70438        0.32443
N          1.75652       -1.95396       -0.72145
H          0.83396       -0.52780       -1.95595
N          3.47825       -2.50877        0.77322
H          2.91312        0.00027        1.42803
H          1.68465       -2.86789       -1.15740
H          3.65224       -3.39758        0.31674
H          4.03811       -2.24500        1.57670
H          3.21787        2.75840       -0.00912
H          3.11784        0.68900       -1.87606
