40
STX_70_solv.log	Energy: -675521.3838650
C          0.85663        0.95623       -0.62646
N          0.01589        2.13301       -0.64884
C         -1.31585        2.10218       -0.61155
C          2.22290        1.34820       -0.08581
H          0.98040        0.56893       -1.65186
N         -2.00093        3.23058       -0.74118
H         -1.51333        4.10678       -0.89393
H         -3.01307        3.23364       -0.78014
H          0.45410        3.01912       -0.88795
N         -1.96918        0.94275       -0.41616
C         -2.17904       -0.85429        1.06628
C         -3.57805       -0.46783        0.59002
C         -3.38131        0.93140        0.02741
O         -1.98700       -2.21456        1.29030
O         -1.80070       -0.14847        2.20209
H         -3.91853       -1.16797       -0.18659
H         -4.30027       -0.48987        1.41590
H         -3.51983        1.69302        0.80805
H         -4.05511        1.15017       -0.81120
H          2.65535        2.16049       -0.69078
H          2.13936        1.68754        0.95738
O          3.03356        0.18864       -0.16939
C          4.22620        0.22599        0.46215
O          4.63126        1.21315        1.04997
H          5.78674       -1.03972        0.76537
N          4.86931       -0.94363        0.34913
H          4.46613       -1.71389       -0.16995
C          0.20355       -0.13940        0.22983
C         -1.28838       -0.29176       -0.09449
N         -1.22939       -1.25076       -1.19424
C         -0.11819       -1.99537       -1.05084
N          0.70307       -1.45043       -0.14683
H          0.34886        0.06538        1.29627
N          0.12617       -3.10292       -1.71378
H         -2.07582       -1.66151       -1.58333
H          1.70127       -1.64482       -0.14166
H          1.00494       -3.59301       -1.58337
H         -0.55371       -3.47067       -2.37063
H         -2.62774       -2.72916        0.78421
H         -2.47201       -0.28692        2.88450
