40
STX_81_solv.log	Energy: -675521.9712640
C         -0.32458       -1.79892       -0.34530
N         -0.35572       -1.74251        1.11535
C         -0.48462       -0.54685        1.70776
C         -1.70894       -1.59856       -0.94064
H         -0.02537       -2.81745       -0.62060
N         -1.17285       -0.40225        2.82654
H         -1.74093       -1.16591        3.17876
H         -1.10206        0.44752        3.37636
H         -0.78783       -2.53344        1.58659
N          0.13012        0.50098        1.13918
C          1.23514        1.73504       -0.54433
C         -0.10218        2.37979       -0.21259
C         -0.38040        1.87856        1.19426
O          2.29090        2.34610        0.13842
O          1.45214        1.72808       -1.91563
H         -0.04488        3.47372       -0.28193
H         -0.86226        2.00841       -0.91324
H         -1.44681        1.86769        1.44939
H          0.15853        2.46392        1.95268
H         -1.66226       -1.71639       -2.03400
H         -2.39319       -2.35616       -0.53502
O         -2.16899       -0.29729       -0.61044
C         -3.49766       -0.07448       -0.67327
O         -4.30273       -0.94032       -0.96878
H         -4.76347        1.49201       -0.42181
N         -3.79748        1.19541       -0.36455
H         -3.07124        1.88169       -0.20171
C          0.74178       -0.83860       -0.90222
C          1.11809        0.29635        0.09418
N          2.39067       -0.16996        0.61832
C          2.90214       -1.13150       -0.16579
N          2.02056       -1.50532       -1.09086
H          0.39524       -0.40845       -1.84859
N          4.11038       -1.63275       -0.02796
H          2.99647        0.48434        1.10674
H          2.12074       -2.35766       -1.63380
H          4.43590       -2.36679       -0.64769
H          4.72830       -1.28699        0.69815
H          2.27589        3.29172       -0.06319
H          2.34634        1.39550       -2.08025
