40
STX_72_solv.log	Energy: -675523.5205159
C          0.91688        0.70078       -1.20141
N          0.30843        1.99693       -0.97811
C         -0.98436        2.13278       -0.67989
C          2.43333        0.79873       -1.25180
H          0.60900        0.31772       -2.18944
N         -1.53346        3.33970       -0.67398
H         -0.98003        4.14706       -0.94089
H         -2.52068        3.47548       -0.49289
H          0.80509        2.82294       -1.30252
N         -1.72587        1.05312       -0.36428
C         -1.82985       -0.63397        1.24539
C         -3.24808       -0.12485        1.01110
C         -3.03598        1.20767        0.30748
O         -1.70626       -1.99702        1.45270
O         -1.28018        0.10951        2.29512
H         -3.78822       -0.83887        0.37506
H         -3.79048       -0.01571        1.95780
H         -2.97332        2.02659        1.03796
H         -3.82240        1.43836       -0.42278
H          2.83922       -0.13384       -1.66297
H          2.72082        1.62258       -1.91839
O          3.01741        1.07622        0.01041
C          3.47367        0.02803        0.73184
O          3.38307       -1.13294        0.35948
H          4.07700        1.41508        2.11638
N          4.01734        0.43118        1.88426
H          4.40027       -0.26226        2.51432
C          0.39357       -0.26054       -0.12670
C         -1.13908       -0.24803       -0.10996
N         -1.41415       -1.25179       -1.13873
C         -0.39036       -2.13066       -1.15090
N          0.65595       -1.63652       -0.48701
H          0.79968        0.00395        0.85686
N         -0.42572       -3.30387       -1.74125
H         -2.36222       -1.58529       -1.29675
H          1.60740       -1.99839       -0.52303
H          0.39500       -3.90050       -1.74358
H         -1.27321       -3.62612       -2.19636
H         -2.31372       -2.25864        2.15819
H         -0.45770       -0.31718        2.57405
