40
STX_5_solv.log	Energy: -675524.0900058
C         -0.63622       -1.37319       -0.61820
N         -0.92744       -1.25405        0.80484
C         -0.68965       -0.09382        1.43263
C         -1.60489       -0.55955       -1.48010
H         -0.74998       -2.43333       -0.87551
N         -1.37835        0.25402        2.50593
H         -2.22463       -0.25106        2.74798
H         -1.12361        1.06682        3.05510
H         -1.66405       -1.84363        1.18173
N          0.27950        0.69188        0.94839
C          1.65107        1.53090       -0.74036
C          1.58077        2.56782        0.37548
C          0.38456        2.13537        1.21676
O          2.91497        1.50360       -1.30927
O          0.65063        1.71016       -1.69555
H          2.51041        2.52925        0.95976
H          1.46699        3.58116       -0.02992
H         -0.54950        2.62203        0.90109
H          0.54821        2.33432        2.28452
H         -1.43719        0.51733       -1.35963
H         -1.45692       -0.82579       -2.53446
O         -2.94019       -0.89101       -1.14274
C         -3.62618       -0.02715       -0.36011
O         -3.19429        1.06017       -0.01335
H         -5.46520        0.05460        0.49629
N         -4.82205       -0.52811       -0.02469
H         -5.13728       -1.41406       -0.40041
C          0.81075       -0.96677       -0.89290
C          1.28126        0.21134        0.00860
N          2.43186       -0.35369        0.68798
C          2.68227       -1.60725        0.29527
N          1.75702       -2.01743       -0.56514
H          0.91100       -0.68730       -1.95075
N          3.70146       -2.32945        0.71215
H          3.09466        0.20708        1.21489
H          1.74131       -2.94024       -0.98595
H          3.82956       -3.27657        0.37312
H          4.35591       -1.95222        1.38858
H          2.89830        0.88525       -2.05415
H          0.70657        2.61458       -2.03363
