40
STX_1_solv.log	Energy: -675522.2004744
C          1.04679        0.73622       -0.05679
N          0.98120        0.22111        1.30705
C          0.25353       -0.88378        1.53897
C          1.81635       -0.20813       -0.98443
H          1.57956        1.69325       -0.01209
N          0.59685       -1.74299        2.48317
H          1.47911       -1.63104        2.97201
H         -0.03150       -2.48048        2.78280
H          1.81552        0.34019        1.87578
N         -0.83109       -1.08339        0.78223
C         -2.09678       -0.88397       -1.16354
C         -2.64319       -2.06644       -0.36096
C         -1.53869       -2.36834        0.64859
O         -3.03647       -0.14853       -1.87991
O         -1.08890       -1.26835       -2.03810
H         -3.57081       -1.76807        0.14950
H         -2.86584       -2.92145       -1.01139
H         -0.83429       -3.12843        0.28181
H         -1.94869       -2.69817        1.61292
H          1.26606       -1.14522       -1.13454
H          1.96041        0.27671       -1.95984
O          3.05946       -0.58215       -0.41559
C          4.06953        0.31319       -0.48237
O          3.96724        1.39561       -1.03591
H          6.00713        0.41481        0.12038
N          5.16646       -0.14865        0.13184
H          5.18512       -1.07581        0.53812
C         -0.36199        1.00013       -0.58438
C         -1.39027       -0.04003       -0.05916
N         -2.33349        0.78899        0.66624
C         -2.03404        2.08929        0.57723
N         -0.90907        2.25817       -0.10864
H         -0.34805        0.98691       -1.68179
N         -2.75756        3.05629        1.10218
H         -3.19336        0.43525        1.07537
H         -0.47181        3.15863       -0.27167
H         -2.46808        4.02349        1.00535
H         -3.60161        2.84065        1.62112
H         -3.86636       -0.09365       -1.38879
H         -1.42363       -1.97572       -2.60637
