40
STX_54_solv.log	Energy: -675522.6570189
C          0.13703       -1.88729        0.64816
N          0.02357       -2.16150       -0.78299
C          0.27078       -1.17184       -1.65841
C          1.59582       -1.81989        1.08345
H         -0.29739       -2.74455        1.17809
N          0.83635       -1.42336       -2.82697
H          1.19911       -2.35033       -3.02438
H          0.87562       -0.72327       -3.55910
H          0.30510       -3.09387       -1.07579
N         -0.10161        0.06788       -1.32410
C         -0.61162        1.82306        0.13698
C         -0.39873        2.39515       -1.26380
C          0.35904        1.29390       -1.99291
O         -1.61144        2.43460        0.89014
O          0.55698        1.81876        0.88080
H         -1.37336        2.57771       -1.74030
H          0.15579        3.34149       -1.22876
H          1.44749        1.38645       -1.86876
H          0.11963        1.27709       -3.06431
H          1.66054       -1.57396        2.15084
H          2.06580       -2.79918        0.91415
O          2.30444       -0.86648        0.30768
C          2.95648        0.13674        0.93285
O          2.95698        0.29394        2.14078
H          3.51292        0.74250       -0.94594
N          3.62367        0.89473        0.04927
H          4.08003        1.73545        0.37977
C         -0.68946       -0.64775        1.02736
C         -0.92776        0.31991       -0.16371
N         -2.33957        0.12406       -0.45042
C         -2.94404       -0.54105        0.54292
N         -2.04814       -0.98578        1.41779
H         -0.18326       -0.11642        1.84081
N         -4.24386       -0.72976        0.62665
H         -2.85121        0.73886       -1.07800
H         -2.26879       -1.63275        2.16785
H         -4.63665       -1.25944        1.39732
H         -4.86318       -0.35322       -0.08250
H         -2.29605        2.79178        0.31046
H          0.95422        2.69961        0.85138
