40
STX_26_solv.log	Energy: -675523.6698004
C         -0.25232       -1.90928       -0.27879
N         -0.12835       -1.90754        1.17732
C         -0.24661       -0.74655        1.84554
C         -1.70145       -1.76909       -0.71556
H          0.08551       -2.89146       -0.63092
N         -0.80907       -0.70761        3.04171
H         -1.25605       -1.53693        3.41905
H         -0.75491        0.11815        3.62736
H         -0.50747       -2.72631        1.64689
N          0.24395        0.36038        1.28078
C          0.82285        1.75690       -0.50589
C          0.72926        2.59743        0.76223
C         -0.06483        1.72651        1.72644
O          1.87773        2.18336       -1.30132
O         -0.37915        1.72173       -1.20703
H          1.74218        2.78551        1.14469
H          0.24588        3.56291        0.56627
H         -1.14988        1.89645        1.65606
H          0.25222        1.88637        2.76598
H         -1.76890       -1.84085       -1.81076
H         -2.30650       -2.57457       -0.27209
O         -2.16180       -0.50529       -0.26858
C         -3.32260       -0.04731       -0.76840
O         -4.05874       -0.72614       -1.46283
H         -2.78351        1.76251       -0.00094
N         -3.55267        1.21667       -0.37285
H         -4.34275        1.70237       -0.77965
C          0.67053       -0.84887       -0.90289
C          1.03359        0.31256        0.06721
N          2.43716        0.05870        0.34961
C          2.94333       -0.84958       -0.49562
N          1.97934       -1.38370       -1.23852
H          0.18928       -0.44270       -1.79998
N          4.21871       -1.16724       -0.56833
H          3.02561        0.76579        0.78215
H          2.11246       -2.20048       -1.82615
H          4.53450       -1.87889       -1.21835
H          4.89435       -0.71761        0.03985
H          1.85090        1.68791       -2.13268
H         -0.68138        2.62864       -1.35229
