40
STX_12_solv.log	Energy: -675522.6561090
C         -0.13702       -1.88726       -0.64826
N         -0.02404       -2.16152        0.78289
C         -0.27093       -1.17177        1.65827
C         -1.59564       -1.81955       -1.08382
H          0.29732       -2.74464       -1.17807
N         -0.83640       -1.42314        2.82692
H         -1.19959       -2.34993        3.02433
H         -0.87526       -0.72306        3.55908
H         -0.30538       -3.09393        1.07574
N          0.10150        0.06789        1.32387
C          0.61176        1.82298       -0.13722
C          0.39844        2.39516        1.26345
C         -0.35941        1.29393        1.99248
O          1.61185        2.43447       -0.89003
O         -0.55675        1.81849       -0.88132
H          1.37289        2.57782        1.74024
H         -0.15615        3.34145        1.22815
H         -1.44786        1.38633        1.86810
H         -0.12016        1.27734        3.06392
H         -1.66017       -1.57338       -2.15117
H         -2.06582       -2.79880       -0.91483
O         -2.30403       -0.86620       -0.30779
C         -2.95683        0.13675       -0.93266
O         -2.95788        0.29400       -2.14059
H         -3.51406        0.74108        0.94644
N         -3.62376        0.89450       -0.04869
H         -4.08181        1.73443       -0.37884
C          0.68986       -0.64799       -1.02731
C          0.92794        0.31985        0.16367
N          2.33970        0.12404        0.45070
C          2.94438       -0.54114       -0.54254
N          2.04858       -0.98637       -1.41723
H          0.18404       -0.11661       -1.84099
N          4.24425       -0.72938       -0.62627
H          2.85130        0.73942        1.07777
H          2.26945       -1.63256       -2.16790
H          4.63717       -1.25902       -1.39690
H          4.86346       -0.35286        0.08299
H          2.29517        2.79350       -0.30998
H         -0.95400        2.69933       -0.85185
