40
STX_55_solv.log	Energy: -675523.4345220
C          0.91090        0.70371       -1.20083
N          0.28435        1.99257       -0.98263
C         -1.01309        2.11222       -0.69876
C          2.42620        0.82036       -1.24875
H          0.60984        0.31500       -2.18893
N         -1.57625        3.31269       -0.69683
H         -1.02994        4.12708       -0.95684
H         -2.56697        3.43600       -0.52645
H          0.77417        2.82561       -1.29938
N         -1.74657        1.02264       -0.39626
C         -1.80396       -0.62716        1.24578
C         -3.23934       -0.15820        1.01494
C         -3.05669        1.16342        0.28112
O         -1.66313       -1.98407        1.49808
O         -1.15592        0.16402        2.19979
H         -3.77472       -0.89614        0.40207
H         -3.78135       -0.03720        1.96223
H         -3.00540        1.99681        0.99563
H         -3.85236        1.36404       -0.44768
H          2.84300       -0.10582       -1.66350
H          2.70539        1.65023       -1.91142
O          3.00599        1.09830        0.01529
C          3.47716        0.05224        0.73013
O          3.40341       -1.10768        0.35058
H          4.05762        1.43837        2.12543
N          4.01673        0.45572        1.88428
H          4.40458       -0.23694        2.51218
C          0.39639       -0.25942       -0.12424
C         -1.13739       -0.26463       -0.11496
N         -1.40370       -1.29225       -1.11830
C         -0.36498       -2.15376       -1.12705
N          0.67672       -1.63423       -0.47780
H          0.78453        0.00578        0.86557
N         -0.38446       -3.33387       -1.70433
H         -2.34755       -1.64125       -1.26722
H          1.63256       -1.98493       -0.50832
H          0.44534       -3.91781       -1.70292
H         -1.22988       -3.67717       -2.14778
H         -2.31435       -2.24928        2.16120
H         -1.71622        0.22750        2.98497
