52
M6_solv.log	Energy: -904667.8127263
C          3.58158       -0.51168       -1.27011
N          4.02669       -1.04483        0.00923
C          3.19938       -1.11340        1.05144
C          2.71040       -1.46776       -2.08879
H          4.48754       -0.33796       -1.86285
N          3.42562       -1.93740        2.05815
H          4.16894       -2.62581        1.99321
H          2.91011       -1.85748        2.92841
H          4.87582       -1.60182        0.03262
N          2.11292       -0.32073        1.04414
C          0.45506        0.85365       -0.07663
C         -0.24288       -0.01512        0.95842
C          0.90233       -0.55547        1.83385
O         -0.03795        1.49435       -0.96393
H          0.80053       -1.62903        2.03391
H          0.95939       -0.02371        2.79438
H          2.84038       -1.23620       -3.15252
H          2.99680       -2.51069       -1.90473
O          1.31841       -1.27339       -1.83463
C          0.62682       -2.11500       -1.05618
O          1.12292       -3.05576       -0.48224
C          2.90002        0.84155       -1.05285
C          1.98372        0.84566        0.19905
N          2.37360        2.07704        0.86194
C          3.47878        2.60505        0.31549
N          3.85099        1.89452       -0.74527
H          2.30843        1.11082       -1.94003
N          4.09458        3.67432        0.77043
H          1.98297        2.37834        1.75049
H          4.57207        2.19240       -1.39465
H          4.91086        4.04007        0.29161
H          3.74411        4.15536        1.59221
H         -0.85140        0.68315        1.55285
C         -0.81530       -1.69115       -0.96909
C         -1.19825       -1.12482        0.41509
H         -1.43363       -2.58068       -1.15374
H         -1.11353       -1.95198        1.13283
H         -1.02144       -0.95563       -1.75663
C         -3.05728        0.49437       -0.22154
C         -2.65775       -0.70778        0.40227
C         -3.61286       -1.54619        0.97949
C         -4.98505       -1.23553        0.96776
H         -2.33083        1.16811       -0.67870
H         -3.28817       -2.47419        1.45608
H         -5.72463       -1.89195        1.42766
C         -5.34917       -0.05801        0.35264
C         -4.40305        0.78569       -0.22649
O         -5.03557        1.88844       -0.72705
C         -6.42701        1.59928       -0.66693
O         -6.58807        0.50389        0.22545
H         -6.97063        2.47244       -0.28385
H         -6.78942        1.31568       -1.67089
