52
M6_2_solv.log	Energy: -904670.7258323
C         -3.31369        0.80026        1.37218
N         -2.76643       -0.28008        2.17782
C         -1.78246       -1.07995        1.76136
C         -2.48917        2.07634        1.44546
H         -4.30548        1.04095        1.77557
N         -1.07634       -1.77120        2.64331
H         -1.21349       -1.61427        3.63673
H         -0.49097       -2.54721        2.35540
H         -2.98315       -0.28294        3.17041
N         -1.53197       -1.20392        0.44323
C         -1.23285        0.23988       -1.36428
C          0.12816       -0.28245       -0.95825
C         -0.21673       -1.53149       -0.13706
O         -1.48802        1.08302       -2.18147
H          0.52459       -1.73597        0.64282
H         -0.31090       -2.42712       -0.76608
H         -2.98360        2.87859        0.88196
H         -2.36020        2.39384        2.48916
O         -1.21197        1.79180        0.88466
C         -0.55072        2.72502        0.18934
O         -0.94924        3.85691        0.06042
C         -3.49111        0.32583       -0.06305
C         -2.32252       -0.53418       -0.57662
N         -3.01556       -1.47550       -1.43699
C         -4.32130       -1.52775       -1.12154
N         -4.62080       -0.57410       -0.23847
H         -3.59439        1.19730       -0.72807
N         -5.17048       -2.39452       -1.62345
H         -2.53723       -2.24067       -1.90620
H         -5.57639       -0.28063       -0.05612
H         -6.15121       -2.36087       -1.36447
H         -4.85102       -3.11347       -2.26444
H          0.65090       -0.53091       -1.89248
C          0.73537        2.19381       -0.39121
C          1.00903        0.70949       -0.13033
H          1.53822        2.79680        0.06081
H          0.77450        0.53006        0.92738
H          0.73336        2.44264       -1.46321
C          3.18157       -0.24346        0.73241
C          2.47433        0.36437       -0.32434
C          3.11729        0.62911       -1.53723
C          4.46913        0.31197       -1.74703
H          2.69905       -0.46378        1.68638
H          2.55693        1.09542       -2.35138
H          4.96588        0.51854       -2.69575
C          5.14091       -0.27686       -0.69553
C          4.50947       -0.54828        0.51427
O          5.39627       -1.15850        1.35556
C          6.66887       -1.03229        0.73216
O          6.43500       -0.71317       -0.63367
H          7.23562       -0.21460        1.21183
H          7.21214       -1.98318        0.80325
