52
M6_4_solv.log	Energy: -904669.2695899
C         -2.55865        0.65864       -1.78659
N         -3.38686        1.33394       -0.79916
C         -3.11604        1.26913        0.50733
C         -1.25002        1.39397       -2.03723
H         -3.11237        0.63900       -2.73305
N         -3.57098        2.20053        1.33052
H         -4.03462        3.02323        0.95870
H         -3.56220        2.06242        2.33515
H         -3.99743        2.08040       -1.11837
N         -2.39053        0.24079        0.98535
C         -0.44911       -0.95801        0.45807
C         -0.15306       -0.17364        1.71771
C         -1.52998        0.33401        2.17767
O          0.30312       -1.62178       -0.20198
H         -1.50310        1.36456        2.54711
H         -1.93697       -0.29952        2.97682
H         -0.67741        0.89975       -2.83389
H         -1.43807        2.43764       -2.31744
O         -0.50688        1.33771       -0.82178
C          0.17928        2.40079       -0.39715
O          0.34584        3.38696       -1.07421
C         -2.31502       -0.77419       -1.33773
C         -1.96925       -0.87698        0.15993
N         -2.63611       -2.11415        0.52658
C         -3.57190       -2.43543       -0.38291
N         -3.49067       -1.62231       -1.43590
H         -1.48355       -1.20711       -1.91506
N         -4.43650       -3.41518       -0.24595
H         -2.66104       -2.45700        1.48348
H         -3.94488       -1.82266       -2.32186
H         -5.09131       -3.62813       -0.99149
H         -4.44608       -3.97774        0.59852
H          0.20957       -0.92981        2.43074
C          0.63542        2.26210        1.02862
C          0.98198        0.89564        1.63928
H         -0.18116        2.72235        1.61047
H          1.16809        1.13509        2.69675
H          1.49643        2.93264        1.15120
C          2.76174        0.54278       -0.17964
C          2.27489        0.28268        1.11795
C          2.98412       -0.58140        1.95853
C          4.17122       -1.21664        1.56008
H          2.26208        1.20651       -0.88475
H          2.60392       -0.76911        2.96605
H          4.71237       -1.88948        2.22623
C          4.62297       -0.94323        0.28629
C          3.93195       -0.08057       -0.55775
O          4.58198       -0.01109       -1.75758
C          5.83223       -0.66006       -1.55908
O          5.71977       -1.42959       -0.36813
H          6.04541       -1.32091       -2.40909
H          6.62673        0.09736       -1.43704
