37
STX_ketone_7_solv.log	Energy: -627542.1716058
C          0.02586       -1.81373       -0.42056
N          0.20083       -1.86709        1.02201
C          0.16241       -0.75835        1.76619
C         -1.42939       -1.64618       -0.82777
H          0.35175       -2.77831       -0.82934
N         -0.13680       -0.82215        3.05295
H         -0.46290       -1.69359        3.45828
H          0.02912       -0.03462        3.67008
H          0.05204       -2.75553        1.49110
N          0.44370        0.42706        1.19819
C          0.14724        1.73233       -0.71530
C         -0.50406        2.45921        0.42276
C         -0.08981        1.71118        1.68818
O          0.08101        1.97426       -1.89069
H         -0.20108        3.51495        0.41425
H         -1.59141        2.40871        0.26002
H         -0.94453        1.51998        2.34780
H          0.68097        2.25058        2.25581
H         -1.49788       -1.66691       -1.92667
H         -2.02177       -2.47331       -0.40777
O         -1.89230       -0.40321       -0.31834
C         -3.16615        0.00695       -0.47615
O         -3.50651        1.04772        0.06275
H         -4.93142       -0.45216       -1.34222
N         -3.97545       -0.76271       -1.21736
H         -3.68064       -1.60916       -1.68762
C          0.93179       -0.73361       -1.00299
C          0.97197        0.54988       -0.14535
N          2.38744        0.87947       -0.15966
C          3.12215       -0.15240       -0.60166
N          2.32934       -1.13170       -1.03110
H          0.59071       -0.47043       -2.01545
N          4.43645       -0.17871       -0.61049
H          2.77574        1.65035        0.37700
H          2.66464       -1.92646       -1.56650
H          4.93071       -0.98096       -0.98667
H          4.96771        0.60584       -0.24782
