37
STX_ketone_8_solv.log	Energy: -627540.5614667
C          0.00766       -1.58919       -0.99604
N         -0.22962       -1.92023        0.40142
C         -0.38417       -0.97118        1.32964
C         -1.25324       -1.18391       -1.75374
H          0.37136       -2.49964       -1.48984
N         -0.98433       -1.23850        2.47668
H         -1.46169       -2.12438        2.60835
H         -0.95201       -0.58481        3.25155
H         -0.53329       -2.86274        0.62985
N          0.08586        0.26305        1.07766
C          0.48239        1.92306       -0.50972
C         -0.41935        2.50903        0.53730
C         -0.44000        1.49904        1.68419
O          0.79106        2.38612       -1.57412
H         -0.05977        3.50484        0.82926
H         -1.41705        2.61953        0.08559
H         -1.45670        1.32000        2.05435
H          0.19497        1.81224        2.52497
H         -0.98099       -0.99102       -2.79960
H         -1.98074       -2.00642       -1.75326
O         -1.81869        0.02460       -1.26115
C         -2.91733        0.09683       -0.47796
O         -3.36883        1.20443       -0.24012
H         -4.25784       -0.96143        0.59210
N         -3.44038       -1.04293       -0.00065
H         -3.04960       -1.96480       -0.14433
C          1.11548       -0.54326       -1.08849
C          1.00200        0.55225       -0.00647
N          2.37767        0.68210        0.44218
C          3.13451       -0.33144       -0.00323
N          2.43034       -1.10436       -0.82679
H          1.09577       -0.06776       -2.08030
N          4.39235       -0.52030        0.32877
H          2.65493        1.29454        1.20438
H          2.84706       -1.82108       -1.41276
H          4.91527       -1.29617       -0.06377
H          4.85102        0.10887        0.97903
