37
STX_ketone_3_solv.log	Energy: -627542.6688255
C         -0.82906       -0.13567       -1.07567
N          0.15316       -0.83364       -1.88658
C          1.19816       -1.43295       -1.31140
C         -1.70082       -1.14413       -0.31226
H         -1.47019        0.43784       -1.75526
N          1.86044       -2.39544       -1.92880
H          1.49688       -2.79427       -2.78875
H          2.75289       -2.72601       -1.57773
H         -0.07180       -1.06631       -2.84918
N          1.55585       -1.03763       -0.07600
C          0.96820       -0.15633        2.00211
C          1.58413       -1.50771        2.22900
C          2.25254       -1.88073        0.90798
O          0.41992        0.55876        2.79597
H          2.26970       -1.47885        3.08591
H          0.76322       -2.20008        2.47485
H          2.11454       -2.93730        0.65090
H          3.32844       -1.65430        0.91433
H         -2.24602       -1.76455       -1.03654
H         -1.08264       -1.79638        0.31976
O         -2.59635       -0.50014        0.57460
C         -3.70186        0.06836        0.04025
O         -3.96903        0.01645       -1.14843
H         -4.15571        0.65163        1.95520
N         -4.43239        0.67826        0.98162
H         -5.30199        1.12231        0.71542
C         -0.12455        0.84546       -0.14675
C          1.12967        0.22052        0.50583
N          2.11226        1.27807        0.35506
C          1.68022        2.23326       -0.48217
N          0.42463        1.99260       -0.85062
H         -0.81853        1.17678        0.63886
N          2.40369        3.26057       -0.86958
H          3.08353        1.17739        0.63608
H         -0.15555        2.67058       -1.33461
H          2.01119        3.96086       -1.48973
H          3.36249        3.36015       -0.55377
