37
STX_ketone_4_solv.log	Energy: -627543.0256211
C         -0.87659        0.73331       -0.01263
N         -0.73124        0.14408       -1.33617
C          0.04140       -0.93385       -1.50016
C         -1.69432       -0.15018        0.93325
H         -1.40450        1.68571       -0.14042
N         -0.15907       -1.77573       -2.49854
H         -0.97888       -1.67625       -3.08889
H          0.53255       -2.47580       -2.74464
H         -1.47420        0.29775       -2.01184
N          1.02893       -1.14532       -0.61314
C          1.86346       -0.97334        1.55600
C          1.86828       -2.42596        1.17239
C          1.64721       -2.45053       -0.33785
O          2.08522       -0.48217        2.62904
H          2.80082       -2.90585        1.49668
H          1.03526       -2.90651        1.70969
H          0.96861       -3.25312       -0.64921
H          2.59254       -2.55086       -0.89037
H         -1.18180       -1.09986        1.13994
H         -1.84715        0.38205        1.88197
O         -2.93325       -0.51007        0.34932
C         -3.92271        0.41178        0.37955
O         -3.79878        1.50620        0.90384
H         -5.84842        0.54575       -0.25229
N         -5.02405       -0.04110       -0.23239
H         -5.05987       -0.97675       -0.61743
C          0.50090        1.02772        0.56789
C          1.49898       -0.12770        0.30547
N          2.66976        0.58063       -0.17984
C          2.39450        1.86755       -0.44049
N          1.14914        2.15617       -0.07555
H          0.42261        1.20137        1.65145
N          3.24508        2.71575       -0.97558
H          3.50917        0.10841       -0.50372
H          0.76848        3.09686       -0.05966
H          2.98162        3.68558       -1.11498
H          4.18126        2.41552       -1.22588
