37
STX_ketone_2_solv.log	Energy: -627543.0606361
C         -0.14366       -0.07317       -1.75882
N          0.87864       -1.10349       -1.85658
C          1.23785       -1.77943       -0.76045
C         -1.51089       -0.72003       -1.50340
H         -0.17153        0.46102       -2.71621
N          1.78254       -2.98035       -0.83981
H          1.82628       -3.46031       -1.73345
H          2.22745       -3.41045       -0.03559
H          1.08670       -1.50876       -2.76423
N          1.01350       -1.20493        0.43438
C         -0.19069        0.24230        1.80916
C         -0.19252       -1.11413        2.45464
C          0.85419       -1.93289        1.70198
O         -0.80761        1.22290        2.12566
H          0.00126       -1.02456        3.53161
H         -1.20434       -1.52807        2.32469
H          0.51580       -2.95574        1.49851
H          1.80998       -1.97581        2.24395
H         -1.78091       -1.33659       -2.37140
H         -1.48317       -1.36132       -0.61143
O         -2.49138        0.28743       -1.34254
C         -3.20643        0.31319       -0.19202
O         -3.13971       -0.55344        0.66301
H         -4.59373        1.52717        0.65991
N         -3.98219        1.40192       -0.13676
H         -3.98919        2.07617       -0.89190
C          0.24810        0.92568       -0.67531
C          0.77252        0.21515        0.59340
N          1.97731        0.96852        0.89324
C          2.31115        1.78414       -0.11853
N          1.37475        1.75602       -1.06250
H         -0.61360        1.55622       -0.41476
N          3.40774        2.50932       -0.15362
H          2.61027        0.72293        1.64919
H          1.34772        2.39531       -1.85020
H          3.59657        3.11673       -0.94395
H          4.08033        2.45707        0.60391
