37
STX_ketone_6_solv.log	Energy: -627544.6049243
C          0.38822       -1.36155        0.66153
N          0.66907       -1.26469       -0.76393
C          0.50580       -0.10220       -1.40073
C          1.40984       -0.61116        1.52362
H          0.42879       -2.42643        0.92047
N          1.13437        0.15469       -2.53241
H          1.90407       -0.43588       -2.83093
H          0.90217        0.97036       -3.08845
H          1.27570       -1.96096       -1.18688
N         -0.33258        0.79769       -0.85618
C         -1.43264        1.73030        0.98092
C         -0.60034        2.80248        0.33978
C         -0.21724        2.25410       -1.03056
O         -2.08334        1.78786        1.98850
H         -1.14434        3.75488        0.31069
H          0.29073        2.93588        0.97528
H          0.81150        2.50740       -1.31153
H         -0.90023        2.60504       -1.81764
H          1.29820        0.47822        1.43471
H          1.26404       -0.89557        2.57304
O          2.72343       -0.99307        1.16219
C          3.41078       -0.17309        0.33306
O          2.99745        0.91528       -0.03279
H          4.87701       -1.60707        0.36416
N          4.58201       -0.71697       -0.01811
H          5.21978       -0.17729       -0.58965
C         -1.02043       -0.84902        0.94067
C         -1.33492        0.43665        0.12613
N         -2.62402        0.12030       -0.45935
C         -2.96759       -1.15816       -0.25306
N         -2.05274       -1.76704        0.49586
H         -1.13514       -0.64160        2.01503
N         -4.06005       -1.71907       -0.72409
H         -3.12381        0.74926       -1.08077
H         -2.16476       -2.70112        0.87595
H         -4.26351       -2.69286       -0.52513
H         -4.70192       -1.18721       -1.30233
