37
STX_ketone_solv.log	Energy: -627544.9016924
C          0.09917       -1.64037       -1.00155
N         -0.03679       -2.02105        0.39806
C         -0.29148       -1.11226        1.34181
C         -1.22261       -1.37846       -1.71491
H          0.54928       -2.49697       -1.51925
N         -0.82625       -1.45912        2.49886
H         -1.20999       -2.39041        2.62217
H         -0.87202       -0.80780        3.27453
H         -0.25209       -2.99140        0.60776
N          0.02447        0.17085        1.09244
C          0.29090        1.92458       -0.39908
C         -0.48218        2.46506        0.77121
C         -0.56707        1.32564        1.78930
O          0.45188        2.42218       -1.48008
H          0.05691        3.34188        1.15985
H         -1.46675        2.80728        0.42691
H         -1.60557        1.08946        2.05511
H         -0.00870        1.54958        2.70921
H         -1.02770       -1.34277       -2.79439
H         -1.92759       -2.19246       -1.50423
O         -1.80142       -0.12130       -1.38266
C         -2.81841       -0.09483       -0.49141
O         -3.13727       -1.05475        0.18875
H         -4.13797        1.28256        0.21044
N         -3.40538        1.10876       -0.46625
H         -3.07713        1.85943       -1.06167
C          1.07236       -0.46876       -1.12020
C          0.90617        0.56662        0.01628
N          2.27800        0.77202        0.45468
C          3.10993       -0.12527       -0.09387
N          2.45569       -0.88472       -0.96654
H          0.93102        0.03607       -2.08744
N          4.38971       -0.22378        0.19262
H          2.52498        1.35573        1.24912
H          2.90729       -1.54690       -1.58906
H          4.96566       -0.92244       -0.26499
H          4.80786        0.38774        0.88544
