52
M5_hydrate_8_solv.log	Energy: -834324.4194739
C         -2.42177        1.51135        0.96122
N         -2.02150        0.75448        2.13741
C         -1.11451       -0.22681        2.09238
C         -1.48647        2.66999        0.65160
H         -3.39793        1.96220        1.18307
N         -0.47106       -0.58157        3.19645
H         -0.60141       -0.05137        4.05137
H          0.03784       -1.45630        3.24683
H         -2.19972        1.17368        3.04564
N         -0.87689       -0.86320        0.93719
C         -0.48486       -0.59341       -1.39801
C          0.84653       -0.81804       -0.62428
C          0.34925       -1.59323        0.59930
O         -0.59251       -1.69904       -2.24330
H          1.06425       -1.58924        1.42922
H          0.10485       -2.63883        0.36410
H         -1.86327        3.23857       -0.20889
H         -1.41616        3.33977        1.51973
O         -0.19966        2.14319        0.37746
C          0.47369        2.51246       -0.71739
O          0.14410        3.43905       -1.42017
C         -2.62506        0.56376       -0.22086
C         -1.63374       -0.63320       -0.28578
N         -2.53593       -1.74260       -0.53953
C         -3.81929       -1.39948       -0.39647
N         -3.91901       -0.09854       -0.14210
H         -2.55326        1.13449       -1.15487
N         -4.83040       -2.23591       -0.49981
H         -2.21527       -2.69875       -0.65551
H         -4.79663        0.41051       -0.17640
H         -5.78348       -1.90102       -0.40912
H         -4.66499       -3.22013       -0.68106
H          1.45211       -1.46016       -1.27495
C          1.71350        1.68188       -0.90865
C          1.73434        0.36288       -0.12771
H          2.54348        2.30914       -0.54228
H          1.40217        0.62162        0.88521
H          1.87908        1.56157       -1.98812
C          5.79196       -1.08914        0.30288
C          5.24436       -0.90626       -0.96917
C          3.93870       -0.44097       -1.10926
C          3.15912       -0.14507        0.01728
C          3.71745       -0.33117        1.28586
C          5.02466       -0.80126        1.43015
H          6.81510       -1.45569        0.41266
H          5.83916       -1.12920       -1.85804
H          3.51777       -0.30680       -2.10971
H          3.11942       -0.10358        2.17279
H          5.44332       -0.94132        2.42946
O         -0.62308        0.57991       -2.11980
H         -1.43701       -1.64502       -2.71375
H          0.01601        0.56669       -2.84668
