52
M5_hydrate_12_solv.log	Energy: -834323.2656973
C         -2.40328        1.54283        0.93732
N         -1.97745        0.83654        2.13572
C         -1.07366       -0.14842        2.11555
C         -1.48240        2.69589        0.56802
H         -3.37941        1.99453        1.15739
N         -0.41022       -0.45733        3.22223
H         -0.52604        0.10874        4.05597
H          0.08879       -1.33530        3.30517
H         -2.14278        1.29110        3.02930
N         -0.85793       -0.83529        0.98554
C         -0.51445       -0.66758       -1.36022
C          0.83895       -0.84123       -0.60115
C          0.36401       -1.57499        0.65652
O         -0.74121       -1.81607       -2.12544
H          1.09145       -1.54038        1.47478
H          0.11735       -2.62789        0.46030
H         -1.87614        3.22736       -0.30842
H         -1.40417        3.39977        1.40800
O         -0.19568        2.16853        0.29664
C          0.45130        2.47956       -0.83124
O          0.10097        3.36282       -1.57831
C         -2.61689        0.55214       -0.20654
C         -1.63887       -0.65844       -0.23318
N         -2.55076       -1.77103       -0.41306
C         -3.83001       -1.39937       -0.35061
N         -3.91806       -0.09413       -0.10775
H         -2.53785        1.08662       -1.16136
N         -4.85151       -2.21648       -0.50111
H         -2.23618       -2.67796       -0.74111
H         -4.78841        0.42427       -0.17043
H         -5.80080       -1.86105       -0.46851
H         -4.69680       -3.20784       -0.64938
H          1.45543       -1.49964       -1.22746
C          1.69291        1.64638       -0.99871
C          1.72352        0.36398       -0.15941
H          2.52424        2.29165       -0.66853
H          1.39321        0.66413        0.84232
H          1.84855        1.47760       -2.07319
C          5.78499       -1.05928        0.32824
C          5.01651       -0.72862        1.44295
C          3.70857       -0.26716        1.27964
C          3.15043       -0.13228        0.00443
C          3.93135       -0.47040       -1.10919
C          5.23787       -0.92744       -0.95026
H          6.80867       -1.41951        0.45290
H          5.43477       -0.82852        2.44723
H          3.10940       -0.00612        2.15659
H          3.51113       -0.37593       -2.11448
H          5.83365       -1.18387       -1.82938
O         -0.65777        0.47288       -2.13427
H          0.05934       -2.01733       -2.62829
H         -0.02141        0.44095       -2.86236
