52
M5_hydrate_4_solv.log	Energy: -834322.0429261
C         -2.78530        1.04592       -1.15043
N         -3.21272        1.38166        0.20249
C         -2.34250        1.27234        1.20923
C         -1.85612        2.09046       -1.78757
H         -3.69456        1.02847       -1.76223
N         -2.47900        1.96089        2.32659
H         -3.17543        2.69618        2.39356
H         -1.91562        1.75247        3.14366
H         -3.99497        2.02035        0.31494
N         -1.31306        0.42883        1.03424
C          0.11432       -1.18738        0.01472
C          0.91792       -0.31673        1.03713
C         -0.15693        0.34044        1.91071
O          0.24110       -2.51185        0.43792
H          0.13047        1.34195        2.25425
H         -0.38734       -0.28041        2.79104
H         -2.04018        2.11212       -2.86790
H         -2.04678        3.08733       -1.36923
O         -0.48325        1.73634       -1.65592
C          0.27592        2.22056       -0.67060
O         -0.10253        3.05456        0.12099
C         -2.18018       -0.36940       -1.17646
C         -1.40981       -0.70617        0.14008
N         -2.23589       -1.75243        0.71948
C         -3.19325       -2.15848       -0.12595
N         -3.19934       -1.40252       -1.21733
H         -1.51411       -0.46314       -2.03949
N         -4.00720       -3.16694        0.10738
H         -1.88179       -2.34861        1.46210
H         -3.90204       -1.46701       -1.94627
H         -4.71467       -3.42365       -0.57278
H         -3.93746       -3.68997        0.97358
H          1.45987       -1.02395        1.67445
C          1.64038        1.58768       -0.69512
C          1.98205        0.68793        0.52309
H          2.36266        2.41653       -0.70496
H          2.13233        1.37184        1.37225
H          1.75127        1.02878       -1.62902
C          5.90792       -1.00495       -0.25542
C          5.74221        0.36168       -0.02066
C          4.47539        0.87890        0.23515
C          3.34359        0.04984        0.26422
C          3.52582       -1.31992        0.03993
C          4.79585       -1.84163       -0.22103
H          6.90058       -1.41385       -0.45609
H          6.60709        1.02896       -0.03175
H          4.36123        1.94993        0.42504
H          2.68607       -2.01685        0.09022
H          4.90981       -2.91452       -0.39171
O          0.47408       -1.06691       -1.31729
H         -0.18136       -3.08530       -0.21958
H          1.39644       -1.33764       -1.42573
