52
M5_hydrate_solv.log	Energy: -834321.3128502
C         -1.90579        0.97031       -1.65138
N         -2.59701        1.62557       -0.54963
C         -2.19728        1.46218        0.71537
C         -0.59852        1.64556       -2.04964
H         -2.56136        1.04025       -2.52854
N         -2.53972        2.33275        1.65084
H         -2.98352        3.20791        1.39239
H         -2.40433        2.12874        2.63479
H         -3.19578        2.41887       -0.75840
N         -1.43553        0.39776        1.00691
C          0.11074       -1.33224        0.45876
C          0.68734       -0.41131        1.58650
C         -0.57152        0.23748        2.17385
O          0.03895       -2.60270        1.04062
H         -0.38584        1.20196        2.65941
H         -1.05109       -0.42473        2.91040
H         -0.20278        1.15854       -2.94887
H         -0.76096        2.71088       -2.25231
O          0.38761        1.47452       -1.03500
C          0.58020        2.43998       -0.13839
O          0.05685        3.52928       -0.21307
C         -1.72693       -0.51298       -1.32908
C         -1.35756       -0.78074        0.15871
N         -2.36208       -1.75462        0.54462
C         -3.25578       -1.98201       -0.42181
N         -2.96890       -1.24947       -1.49273
H         -0.95072       -0.93308       -1.97888
N         -4.26975       -2.81655       -0.31902
H         -2.35101       -2.23787        1.43704
H         -3.44504       -1.34078       -2.38379
H         -4.90110       -2.95436       -1.10062
H         -4.42753       -3.32745        0.54256
H          1.08400       -1.11352        2.32737
C          1.50226        2.05368        0.98349
C          1.85346        0.59184        1.30391
H          1.06666        2.53065        1.87222
H          2.30932        0.69034        2.30175
H          2.43754        2.61028        0.80888
C          5.01329       -1.23045       -1.05668
C          4.41594       -0.05142       -1.49827
C          3.40204        0.55095       -0.75218
C          2.96324       -0.01281        0.45108
C          3.58779       -1.18958        0.89518
C          4.59573       -1.79690        0.14812
H          5.80300       -1.70331       -1.64452
H          4.73643        0.40682       -2.43673
H          2.94532        1.46423       -1.13482
H          3.27649       -1.64267        1.84009
H          5.06150       -2.71462        0.51422
O          0.78572       -1.39236       -0.74699
H         -0.32528       -3.21734        0.38703
H          1.69212       -1.68702       -0.57731
