52
M5_hydrate_1_solv.log	Energy: -834321.1813431
C         -1.97102        1.19560       -1.52237
N         -2.51001        1.84231       -0.33723
C         -2.09292        1.51640        0.89125
C         -0.61112        1.75488       -1.91899
H         -2.65355        1.40698       -2.35529
N         -2.26332        2.36260        1.89708
H         -2.60668        3.30053        1.71862
H         -2.15535        2.06488        2.85988
H         -3.00118        2.72364       -0.45111
N         -1.50560        0.32922        1.08874
C         -0.01414       -1.33662        0.23323
C          0.61691       -0.60675        1.47430
C         -0.60093       -0.00932        2.18508
O         -0.16454       -2.69282        0.50468
H         -0.36354        0.86822        2.79529
H         -1.08027       -0.75061        2.84082
H         -0.26281        1.28770       -2.84904
H         -0.65790        2.84245       -2.04983
O          0.31501        1.42652       -0.88389
C          0.95653        2.38174       -0.19655
O          0.98270        3.53559       -0.54611
C         -1.94901       -0.31675       -1.31116
C         -1.49735       -0.74830        0.10996
N         -2.49772       -1.74230        0.44671
C         -3.48428       -1.79394       -0.44909
N         -3.27580       -0.90071       -1.41618
H         -1.27533       -0.77308       -2.04922
N         -4.51718       -2.60853       -0.38070
H         -2.39102       -2.39300        1.21715
H         -3.80358       -0.89393       -2.28322
H         -5.21734       -2.60927       -1.11431
H         -4.62287       -3.23853        0.40693
H          0.99706       -1.42071        2.10148
C          1.55293        1.87007        1.08338
C          1.82180        0.37759        1.33079
H          0.86457        2.25218        1.85582
H          2.21248        0.39260        2.36134
H          2.48288        2.43369        1.24215
C          5.07061       -1.35260       -0.98501
C          4.60382       -0.07830       -1.29383
C          3.56217        0.49076       -0.55643
C          2.96141       -0.20466        0.49821
C          3.45243       -1.48335        0.80690
C          4.49117       -2.05202        0.07600
H          5.88390       -1.79843       -1.56176
H          5.05089        0.48660       -2.11498
H          3.23242        1.49533       -0.82800
H          3.01516       -2.04881        1.63356
H          4.85287       -3.04912        0.33764
O          0.69332       -1.24472       -0.95775
H          0.72057       -3.06093        0.63689
H          0.94007       -0.31958       -1.10936
