52
M5_hydrate_2_solv.log	Energy: -834320.8359054
C         -2.76653        1.05709       -1.17945
N         -3.14123        1.49179        0.15783
C         -2.28953        1.32631        1.17105
C         -1.75262        1.96667       -1.87665
H         -3.67732        1.10339       -1.78832
N         -2.38575        2.03392        2.28128
H         -3.02952        2.81695        2.33429
H         -1.84923        1.79052        3.10673
H         -3.89211        2.16783        0.26179
N         -1.31512        0.41645        1.01079
C          0.08947       -1.16683       -0.09983
C          0.90531       -0.36086        0.96868
C         -0.15412        0.28132        1.87439
O          0.24510       -2.51066        0.20870
H          0.14994        1.26608        2.25028
H         -0.38873       -0.36285        2.73644
H         -1.86381        1.85213       -2.96101
H         -1.91688        3.01575       -1.60150
O         -0.39769        1.59330       -1.60636
C          0.34307        2.22813       -0.67751
O         -0.08129        3.12954        0.00131
C         -2.30693       -0.40709       -1.13833
C         -1.44545       -0.72274        0.12359
N         -2.20210       -1.78876        0.75440
C         -3.29047       -2.12227        0.05079
N         -3.41877       -1.32895       -1.00697
H         -1.74603       -0.63736       -2.05358
N         -4.11315       -3.09808        0.37341
H         -1.79435       -2.39213        1.46209
H         -4.16665       -1.40354       -1.68821
H         -4.91563       -3.30795       -0.21037
H         -3.94887       -3.64981        1.20837
H          1.42780       -1.12016        1.56158
C          1.72674        1.63980       -0.62835
C          2.00428        0.64645        0.53561
H          2.42257        2.48138       -0.51055
H          2.14193        1.27275        1.42893
H          1.94108        1.16606       -1.59376
C          5.91993       -1.06465       -0.20509
C          4.77911       -1.82116       -0.46745
C          3.50914       -1.29168       -0.23001
C          3.35983        0.00357        0.27797
C          4.51464        0.75376        0.54031
C          5.78290        0.22856        0.30178
H          6.91247       -1.48177       -0.38949
H          4.87336       -2.83660       -0.85932
H          2.63258       -1.90632       -0.43723
H          4.41549        1.76539        0.94452
H          6.66868        0.82978        0.51957
O          0.48554       -1.01198       -1.42280
H         -0.21174       -3.03746       -0.46397
H          0.26173       -0.12457       -1.74817
