52
M5_hydrate_10_solv.log	Energy: -834323.8955662
C         -2.40855        1.54700        0.92448
N         -1.99541        0.84364        2.12873
C         -1.08956       -0.13980        2.11828
C         -1.47964        2.69345        0.55567
H         -3.38469        2.00324        1.13471
N         -0.43379       -0.44466        3.23052
H         -0.55525        0.12447        4.06135
H          0.06717       -1.32099        3.31915
H         -2.16989        1.30038        3.01936
N         -0.86488       -0.82767        0.99099
C         -0.50090       -0.67261       -1.35811
C          0.84103       -0.84183       -0.58716
C          0.36000       -1.56652        0.67241
O         -0.74791       -1.81661       -2.12025
H          1.08381       -1.52518        1.49354
H          0.11568       -2.62133        0.48298
H         -1.86776        3.22537       -0.32310
H         -1.39912        3.39908        1.39406
O         -0.19685        2.15510        0.28784
C          0.46736        2.48155       -0.82598
O          0.12877        3.37827       -1.56250
C         -2.61604        0.55210       -0.21767
C         -1.64116       -0.66166       -0.23162
N         -2.55712       -1.77293       -0.40302
C         -3.83486       -1.39750       -0.34998
N         -3.91998       -0.08772       -0.12953
H         -2.53211        1.09388       -1.16930
N         -4.85902       -2.21339       -0.49097
H         -2.24707       -2.69726       -0.68201
H         -4.78839        0.43286       -0.19901
H         -5.80727       -1.85485       -0.46358
H         -4.70722       -3.20742       -0.62332
H          1.45305       -1.50943       -1.20761
C          1.70629        1.64478       -0.99279
C          1.73161        0.36297       -0.15183
H          2.54097        2.28704       -0.66542
H          1.40548        0.66523        0.85075
H          1.84967        1.46880       -2.06639
C          5.79281       -1.06621        0.32218
C          5.24059       -0.93566       -0.95431
C          3.93377       -0.47801       -1.10863
C          3.15744       -0.13788        0.00770
C          3.72050       -0.27193        1.28077
C          5.02884       -0.73403        1.43950
H          6.81694       -1.42643        0.44317
H          5.83286       -1.19316       -1.83551
H          3.50959       -0.38397       -2.11230
H          3.12520       -0.00900        2.15979
H          5.45105       -0.83283        2.44224
O         -0.50238        0.45010       -2.16246
H         -0.03616       -1.90190       -2.77015
H         -1.25532        0.39840       -2.76892
