52
M5_hydrate_11_solv.log	Energy: -834322.1228708
C          2.48604       -1.15263       -1.23530
N          3.13559       -1.36552        0.05315
C          2.43987       -1.19238        1.18380
C          1.59929       -2.33814       -1.61968
H          3.27710       -1.12661       -1.99597
N          2.76512       -1.82662        2.29524
H          3.46734       -2.55946        2.27589
H          2.36338       -1.56590        3.18950
H          3.92183       -2.00888        0.08055
N          1.40413       -0.33916        1.14482
C         -0.16088        1.25200        0.30520
C         -0.80129        0.38514        1.44808
C          0.41644       -0.15010        2.20122
O         -0.03104        2.56507        0.74728
H          0.21818       -1.09693        2.71865
H          0.78261        0.57846        2.94101
H          1.11583       -2.15921       -2.58795
H          2.21584       -3.24186       -1.68273
O          0.62852       -2.60564       -0.60486
C         -0.53728       -1.96934       -0.66350
O         -0.88913       -1.34811       -1.64864
C          1.79814        0.23001       -1.26248
C          1.34607        0.71308        0.15209
N          2.31702        1.75806        0.44016
C          2.99856        2.10469       -0.66133
N          2.71900        1.27769       -1.66267
H          0.95176        0.20111       -1.95578
N          3.82914        3.12351       -0.72715
H          2.11130        2.44458        1.16099
H          3.22760        1.26345       -2.54107
H          4.32227        3.32940       -1.58923
H          3.98355        3.71047        0.08551
H         -1.30179        1.10600        2.10271
C         -1.31662       -2.05162        0.61308
C         -1.86334       -0.70937        1.14249
H         -0.68122       -2.52068        1.37357
H         -2.21828       -0.97754        2.15131
H         -2.15491       -2.74486        0.44577
C         -5.46252        0.87487       -0.73329
C         -4.84127        1.54861        0.31907
C         -3.68161        1.03579        0.89413
C         -3.10547       -0.16053        0.43621
C         -3.74710       -0.82958       -0.61248
C         -4.91021       -0.31779       -1.19208
H         -6.37042        1.27647       -1.18861
H         -5.26327        2.48179        0.69917
H         -3.22494        1.58384        1.72088
H         -3.34235       -1.76124       -1.00750
H         -5.38342       -0.86206       -2.01261
O         -0.84783        1.30209       -0.89870
H         -0.91623        2.89393        0.95720
H         -1.11680        0.41645       -1.19816
