52
M5_hydrate_7_solv.log	Energy: -834324.8389891
C         -2.48663        1.18453       -1.23287
N         -3.13876        1.44818        0.04042
C         -2.51690        1.12642        1.17884
C         -1.35709        2.17205       -1.51555
H         -3.23184        1.32529       -2.02569
N         -2.81369        1.74596        2.31093
H         -3.42795        2.55346        2.30510
H         -2.50980        1.37528        3.20478
H         -3.87475        2.14643        0.08032
N         -1.57954        0.16751        1.16159
C          0.17040       -0.98999        0.01098
C          0.72283       -0.40161        1.33993
C         -0.49414        0.09245        2.13435
O          0.48446       -2.34640       -0.00435
H         -0.33620        1.07993        2.58611
H         -0.74808       -0.61028        2.94080
H         -0.80900        1.88014       -2.42094
H         -1.77321        3.17899       -1.65961
O         -0.49136        2.19501       -0.38812
C          0.83001        2.27988       -0.54609
O          1.34696        2.55926       -1.60415
C         -2.05560       -0.28059       -1.26888
C         -1.39885       -0.75910        0.05680
N         -2.09666       -2.00618        0.30044
C         -3.12562       -2.18254       -0.53227
N         -3.19377       -1.17652       -1.40159
H         -1.35583       -0.43040       -2.09921
N         -3.94885       -3.20970       -0.49019
H         -1.85168       -2.64411        1.05059
H         -3.79317       -1.18616       -2.22026
H         -4.69691       -3.29669       -1.16937
H         -3.83696       -3.92564        0.21924
H          1.13467       -1.26015        1.87984
C          1.54296        2.05865        0.76604
C          1.88533        0.61897        1.22281
H          0.91162        2.51564        1.54031
H          2.19789        0.76605        2.26932
H          2.47730        2.63427        0.73152
C          5.33398       -1.26835       -0.64224
C          4.79235       -0.11745       -1.20664
C          3.68639        0.50581       -0.62131
C          3.09603       -0.01472        0.53705
C          3.66022       -1.17190        1.09902
C          4.76322       -1.79169        0.51986
H          6.19794       -1.75506       -1.09999
H          5.22991        0.30858       -2.11229
H          3.28116        1.40307       -1.09068
H          3.23723       -1.59202        2.01494
H          5.18289       -2.68845        0.98140
O          0.63213       -0.36975       -1.14488
H          0.13256       -2.73113       -0.82068
H          1.59039       -0.50180       -1.20382
