52
M5_hydrate_15_solv.log	Energy: -834323.1355017
C         -2.47505        1.17708       -1.24603
N         -3.14119        1.44002        0.02044
C         -2.52607        1.12451        1.16409
C         -1.34572        2.16900       -1.51731
H         -3.21228        1.31622       -2.04655
N         -2.83299        1.74511        2.29290
H         -3.45116        2.54956        2.28144
H         -2.53353        1.37752        3.18953
H         -3.88066        2.13497        0.05234
N         -1.58382        0.17033        1.15428
C          0.17511       -0.98746        0.01179
C          0.71598       -0.39956        1.35417
C         -0.50548        0.10343        2.13482
O          0.49180       -2.33804       -0.13852
H         -0.34966        1.09511        2.57777
H         -0.76519       -0.59099        2.94669
H         -0.78690        1.87788       -2.41633
H         -1.76538        3.17347       -1.66828
O         -0.49081        2.20005       -0.38135
C          0.83196        2.28589       -0.52899
O          1.35636        2.57167       -1.58164
C         -2.04073       -0.28783       -1.27748
C         -1.39724       -0.76172        0.05609
N         -2.10312       -2.00382        0.30216
C         -3.11736       -2.18744       -0.54521
N         -3.17401       -1.18776       -1.42308
H         -1.33215       -0.43579       -2.10019
N         -3.94133       -3.21483       -0.50814
H         -1.89324       -2.62299        1.07844
H         -3.75428       -1.20936       -2.25520
H         -4.68072       -3.30538       -1.19617
H         -3.83529       -3.92976        0.20308
H          1.12578       -1.24534        1.91785
C          1.53809        2.05836        0.78628
C          1.88243        0.61685        1.23644
H          0.90253        2.50937        1.56057
H          2.20143        0.76095        2.28152
H          2.47102        2.63666        0.76042
C          5.31346       -1.27312       -0.66061
C          4.72431       -1.82269        0.47983
C          3.62684       -1.20297        1.06971
C          3.08652       -0.01913        0.54037
C          3.69504        0.52656       -0.59699
C          4.79526       -0.09647       -1.19293
H          6.17284       -1.75984       -1.12686
H          5.12492       -2.74056        0.91609
H          3.19084       -1.64641        1.96822
H          3.30712        1.44261       -1.04371
H          5.24657        0.34997       -2.08184
O          0.63432       -0.34242       -1.12446
H          0.54463       -2.76714        0.72481
H          1.59046       -0.48409       -1.19400
