52
M5_hydrate_13_solv.log	Energy: -834319.6227037
C         -1.94569        1.01150       -1.61549
N         -2.59815        1.66439       -0.48911
C         -2.16900        1.48122        0.76442
C         -0.63736        1.66995       -2.03782
H         -2.62188        1.10074       -2.47512
N         -2.46436        2.35515        1.71311
H         -2.89370        3.24191        1.47021
H         -2.31405        2.14020        2.69255
H         -3.18089        2.47522       -0.67478
N         -1.42997        0.39501        1.02858
C          0.06926       -1.35298        0.41976
C          0.69069       -0.45486        1.54032
C         -0.54622        0.19233        2.17411
O         -0.12328       -2.64791        0.91018
H         -0.33588        1.13879        2.68410
H         -1.02212       -0.48453        2.89951
H         -0.27052        1.18738       -2.95160
H         -0.78508        2.74048       -2.22315
O          0.36549        1.46860       -1.04506
C          0.60005        2.42909       -0.15263
O          0.11074        3.53437       -0.22424
C         -1.77655       -0.47736       -1.31468
C         -1.40068       -0.77498        0.16531
N         -2.43284       -1.71757        0.55821
C         -3.30339       -1.95772       -0.42630
N         -3.01830       -1.20943       -1.48671
H         -1.00618       -0.88390       -1.98162
N         -4.30334       -2.81182       -0.34509
H         -2.32934       -2.32063        1.36746
H         -3.51045       -1.26827       -2.37182
H         -4.91575       -2.96117       -1.13949
H         -4.46802       -3.32700        0.51260
H          1.10187       -1.17173        2.26091
C          1.51496        2.01621        0.96454
C          1.85826        0.54848        1.26828
H          1.07610        2.48297        1.85748
H          2.30123        0.63791        2.27311
H          2.45380        2.57107        0.80516
C          5.10048       -1.20391       -1.02927
C          4.47519       -0.04779       -1.49097
C          3.42797        0.52689       -0.76760
C          2.98379       -0.04318        0.42901
C          3.63212       -1.19831        0.89073
C          4.67471       -1.77629        0.17110
H          5.91838       -1.65415       -1.59625
H          4.80067        0.41549       -2.42543
H          2.95147        1.42509       -1.16324
H          3.31402       -1.65579        1.83173
H          5.16172       -2.67704        0.55219
O          0.83506       -1.38733       -0.72939
H          0.74161       -2.99126        1.17528
H          0.56624       -2.16363       -1.24148
