45
M4_hydrate_solv.log	Energy: -714011.1457128
C          0.59133       -1.75309       -1.16659
N          0.52211       -2.29755        0.18222
C          0.17191       -1.52642        1.21537
C         -0.76453       -1.57273       -1.84682
H          1.12689       -2.48838       -1.78093
N         -0.24992       -2.05785        2.34976
H         -0.47935       -3.04542        2.39562
H         -0.37426       -1.48930        3.17988
H          0.48396       -3.30498        0.30243
N          0.25184       -0.19565        1.05973
C          0.35300        1.80104       -0.23558
C         -0.81190        1.87464        0.81636
C         -0.42733        0.82098        1.86028
O          1.28204        2.81310       -0.02979
H         -1.28755        0.39181        2.38750
H          0.26152        1.23376        2.61277
H         -0.60208       -1.30130       -2.89640
H         -1.34489       -2.50114       -1.79442
O         -1.51936       -0.49325       -1.28058
C         -2.38230       -0.75933       -0.28602
O         -2.62660       -1.88655        0.07397
C          1.42562       -0.47175       -1.14973
C          1.11576        0.43467        0.07414
N          2.43732        0.66384        0.62778
C          3.38680        0.00544       -0.04321
N          2.84452       -0.73997       -1.00265
H          1.24245        0.09063       -2.07485
N          4.67474        0.08367        0.22081
H          2.63361        1.43531        1.25693
H          3.38730       -1.23965       -1.69914
H          5.34631       -0.42653       -0.34254
H          5.00523        0.65844        0.98811
H         -0.72016        2.86721        1.27329
C         -3.03358        0.46617        0.30474
C         -2.25090        1.78570        0.26294
H         -3.22184        0.18515        1.35152
H         -2.85945        2.48690        0.85166
C         -4.39825        0.64261       -0.37880
H         -2.26721        2.19287       -0.75887
H         -5.00506       -0.26923       -0.28846
H         -4.94508        1.47097        0.09342
H         -4.27137        0.87609       -1.44676
O         -0.05944        1.89019       -1.56123
H          0.82667        3.65998       -0.13266
H         -0.76696        1.24592       -1.72290
