45
M4_hydrate_8_solv.log	Energy: -714012.6374345
C          0.81274       -1.84118       -1.01568
N          0.94817       -2.31521        0.35188
C          0.54599       -1.54021        1.36610
C         -0.63687       -1.89332       -1.49891
H          1.38530       -2.51648       -1.66346
N          0.20867       -2.07970        2.52763
H          0.12559       -3.08698        2.61608
H          0.10128       -1.51100        3.35983
H          1.01798       -3.31419        0.51924
N          0.49407       -0.21295        1.19177
C          0.07897        1.63850       -0.25383
C         -0.89566        1.69077        0.96076
C         -0.33401        0.69354        1.98342
O          0.82962        2.80256       -0.39797
H         -1.12199        0.13239        2.50127
H          0.27888        1.19889        2.74390
H         -0.74827       -1.36580       -2.45561
H         -0.94337       -2.94048       -1.63144
O         -1.45265       -1.30522       -0.49768
C         -2.50097       -0.54448       -0.81465
O         -2.95463       -0.47239       -1.93322
C          1.45991       -0.46175       -1.11866
C          1.11150        0.47654        0.07000
N          2.41780        0.98876        0.44124
C          3.40393        0.38576       -0.22460
N          2.90995       -0.53664       -1.05011
H          1.15985       -0.00241       -2.06906
N          4.68383        0.66150       -0.07943
H          2.54770        1.78879        1.05094
H          3.46765       -0.99660       -1.76222
H          5.37878        0.17778       -0.63771
H          4.98532        1.36084        0.59018
H         -0.78195        2.70107        1.37355
C         -3.03627        0.16204        0.41137
C         -2.39505        1.54757        0.64685
H         -2.79156       -0.48461        1.26748
H         -2.92718        1.96589        1.51482
C         -4.55263        0.30618        0.30923
H         -2.63672        2.20296       -0.20296
H         -4.95281        0.76218        1.22600
H         -4.82798        0.94682       -0.54178
H         -5.03754       -0.67143        0.17289
O         -0.64686        1.38111       -1.40938
H          0.21263        3.54100       -0.49817
H         -0.10251        1.60290       -2.17697
