45
M4_hydrate_7_solv.log	Energy: -714012.0216971
C          0.81889       -1.85524       -0.99068
N          0.96090       -2.30431        0.38550
C          0.54780       -1.51805        1.38667
C         -0.63047       -1.94174       -1.47076
H          1.40082       -2.53458       -1.62573
N          0.20797       -2.04312        2.55392
H          0.13105       -3.04972        2.65553
H          0.09219       -1.46450        3.37805
H          1.03079       -3.30075        0.56778
N          0.48953       -0.19353        1.19280
C          0.07164        1.64005       -0.28118
C         -0.89413        1.71514        0.94632
C         -0.33329        0.72517        1.97680
O          0.73010        2.84732       -0.52011
H         -1.12096        0.17337        2.50489
H          0.28432        1.23792        2.72866
H         -0.75286       -1.43784       -2.43848
H         -0.91874       -2.99668       -1.57865
O         -1.45930       -1.34940       -0.48161
C         -2.47667       -0.55297       -0.81189
O         -2.90785       -0.45510       -1.93747
C          1.44735       -0.46904       -1.12118
C          1.10101        0.47904        0.05937
N          2.40602        1.00686        0.41241
C          3.39359        0.39055       -0.24053
N          2.89949       -0.52829       -1.06817
H          1.12245       -0.01306       -2.06320
N          4.67447        0.65628       -0.08435
H          2.54921        1.73035        1.10970
H          3.45521       -0.98215       -1.78571
H          5.37087        0.15679       -0.62673
H          4.97556        1.36210        0.57855
H         -0.79780        2.72891        1.35573
C         -3.01745        0.15937        0.40899
C         -2.39173        1.55419        0.62897
H         -2.76801       -0.47502        1.27238
H         -2.93152        1.98096        1.48778
C         -4.53533        0.28869        0.30303
H         -2.64942        2.20052       -0.22578
H         -4.94107        0.75089        1.21419
H         -4.81437        0.91738       -0.55563
H         -5.01045       -0.69496        0.17644
O         -0.54558        1.27913       -1.46587
H          0.86484        3.32437        0.30811
H         -1.18700        1.96188       -1.70579
