45
M4_hydrate_4_solv.log	Energy: -714012.1326659
C          0.47168       -1.84082       -1.03579
N          0.52466       -2.30749        0.34878
C          0.09693       -1.52101        1.34154
C         -0.92839       -1.86960       -1.64783
H          1.07075       -2.55015       -1.61958
N         -0.34608       -2.01815        2.48063
H         -0.55996       -3.00739        2.55815
H         -0.53035       -1.41476        3.27489
H          0.51681       -3.31123        0.50662
N          0.15502       -0.19612        1.13447
C          0.60343        1.87118        0.07408
C         -0.78912        1.91400        0.75553
C         -0.63408        0.82605        1.82260
O          1.53261        2.57982        0.84199
H         -1.58156        0.40052        2.17362
H         -0.08933        1.21236        2.69657
H         -0.83347       -1.85922       -2.74013
H         -1.47301       -2.77121       -1.33926
O         -1.66232       -0.69409       -1.31830
C         -2.46939       -0.67825       -0.25441
O         -2.72555       -1.66491        0.39856
C          1.12446       -0.44987       -1.16643
C          1.08022        0.35672        0.16626
N          2.45938        0.25387        0.62275
C          3.26362       -0.16342       -0.36682
N          2.55069       -0.53617       -1.42527
H          0.63208        0.11479       -1.96570
N          4.57648       -0.19795       -0.28868
H          2.79498        0.90937        1.32361
H          2.94026       -1.05558       -2.20572
H          5.12865       -0.52829       -1.07281
H          5.04849        0.12044        0.55071
H         -0.84949        2.88397        1.26507
C         -3.03062        0.70127       -0.00250
C         -2.00395        1.82126       -0.20441
H         -3.39893        0.68951        1.03331
H         -2.55872        2.76571       -0.11921
C         -4.23452        0.90414       -0.93323
H         -1.64960        1.77965       -1.24170
H         -4.72621        1.86005       -0.70312
H         -3.91685        0.92299       -1.98645
H         -4.97168        0.09831       -0.80556
O          0.55598        2.35636       -1.22301
H          1.19558        3.47605        0.97676
H          1.46328        2.43079       -1.55450
