45
M4_hydrate_3_solv.log	Energy: -714013.6573257
C          0.81420       -1.84433       -1.01262
N          0.95832       -2.31185        0.35683
C          0.55361       -1.53807        1.37069
C         -0.63497       -1.92108       -1.49307
H          1.39442       -2.51535       -1.65814
N          0.22221       -2.07762        2.53373
H          0.14559       -3.08529        2.62393
H          0.11206       -1.50832        3.36519
H          1.03309       -3.31015        0.52662
N          0.49352       -0.21068        1.19530
C          0.06809        1.64474       -0.24523
C         -0.89990        1.69517        0.97171
C         -0.33701        0.69261        1.98935
O          0.70912        2.87914       -0.32290
H         -1.12325        0.12803        2.50611
H          0.27486        1.19775        2.75081
H         -0.75534       -1.40620       -2.45525
H         -0.92724       -2.97371       -1.61223
O         -1.46121       -1.33608       -0.49759
C         -2.48025       -0.53869       -0.82034
O         -2.90626       -0.42507       -1.94641
C          1.44377       -0.45764       -1.12446
C          1.09668        0.47802        0.06627
N          2.40023        1.01152        0.41569
C          3.38974        0.39504       -0.23626
N          2.89586       -0.52119       -1.06653
H          1.12314        0.00999       -2.06248
N          4.66971        0.66110       -0.07727
H          2.53582        1.74997        1.09832
H          3.45290       -0.97841       -1.78099
H          5.36741        0.16681       -0.62285
H          4.96903        1.36212        0.59164
H         -0.78897        2.70456        1.38465
C         -3.02691        0.15420        0.40846
C         -2.39712        1.54273        0.65293
H         -2.78272       -0.49432        1.26282
H         -2.93499        1.95618        1.51944
C         -4.54369        0.28902        0.29676
H         -2.65397        2.20498       -0.19007
H         -4.95261        0.73985        1.21218
H         -4.81685        0.93020       -0.55453
H         -5.02088       -0.69149        0.15447
O         -0.53550        1.32552       -1.45532
H          1.33457        2.85240       -1.06200
H         -1.19153        2.00298       -1.66925
