45
M4_hydrate_6_solv.log	Energy: -714011.1477208
C         -0.59130        1.75307       -1.16661
N         -0.52213        2.29756        0.18219
C         -0.17195        1.52643        1.21538
C          0.76463        1.57271       -1.84668
H         -1.12676        2.48839       -1.78100
N          0.24992        2.05787        2.34974
H          0.47937        3.04542        2.39560
H          0.37412        1.48933        3.17990
H         -0.48382        3.30499        0.30235
N         -0.25197        0.19568        1.05978
C         -0.35315       -1.80107       -0.23545
C          0.81200       -1.87454        0.81619
C          0.42750       -0.82089        1.86015
O         -1.28216       -2.81305       -0.02907
H          1.28774       -0.39159        2.38722
H         -0.26114       -1.23378        2.61278
H          0.60233        1.30133       -2.89630
H          1.34496        2.50113       -1.79418
O          1.51939        0.49325       -1.28034
C          2.38247        0.75932       -0.28591
O          2.62687        1.88653        0.07406
C         -1.42561        0.47174       -1.14977
C         -1.11583       -0.43465        0.07415
N         -2.43743       -0.66379        0.62768
C         -3.38681       -0.00536       -0.04335
N         -2.84452        0.73994       -1.00285
H         -1.24237       -0.09066       -2.07486
N         -4.67476       -0.08352        0.22067
H         -2.63378       -1.43514        1.25694
H         -3.38720        1.23982       -1.69928
H         -5.34627        0.42681       -0.34266
H         -5.00531       -0.65800        0.98816
H          0.72045       -2.86705        1.27329
C          3.03373       -0.46627        0.30464
C          2.25088       -1.78564        0.26242
H          3.22200       -0.18551        1.35148
H          2.85946       -2.48732        0.85052
C          4.39841       -0.64268       -0.37887
H          2.26688       -2.19230       -0.75960
H          4.94519       -1.47112        0.09327
H          4.27151       -0.87606       -1.44686
H          5.00527        0.26912       -0.28842
O          0.05889       -1.89054       -1.56121
H         -0.82668       -3.66001       -0.13071
H          0.76655       -1.24651       -1.72324
