36
dc-STX_35_solv.log	Energy: -569640.5401225
C          1.34778        1.26195       -0.64000
N          1.63995        1.11514        0.78356
C          1.35146       -0.05005        1.38381
C          2.27753        0.40305       -1.50257
H          1.52664        2.31422       -0.89510
N          2.06763       -0.49020        2.40596
H          2.90627        0.00667        2.68757
H          1.75395       -1.26869        2.97485
H          2.44525        1.62405        1.13772
N          0.31648       -0.75676        0.91611
C         -1.11582       -1.48992       -0.75786
C         -1.15033       -2.51777        0.37088
C          0.06111       -2.17118        1.23430
O         -2.32034       -1.22493       -1.38741
O         -0.13264       -1.90544       -1.66044
H         -2.08629       -2.39512        0.93192
H         -1.10709       -3.53949       -0.02424
H          0.94873       -2.76321        0.96950
H         -0.14793       -2.30413        2.30509
H          2.04864        0.61113       -2.55824
H          2.07978       -0.66781       -1.32776
O          3.62998        0.72392       -1.28171
C         -0.12611        0.95796       -0.89361
C         -0.66279       -0.20068       -0.00480
N         -1.76111        0.43200        0.70322
C         -1.92426        1.70877        0.34417
N         -0.99268        2.06496       -0.53325
H         -0.26287        0.72195       -1.95818
N         -2.87209        2.49892        0.80480
H         -2.42781       -0.07892        1.27359
H         -0.91828        2.99093       -0.94029
H         -2.93673        3.45942        0.48584
H         -3.54168        2.15534        1.48424
H         -2.64588       -2.04695       -1.77993
H         -0.11581       -1.30122       -2.41620
H          3.92643        0.27224       -0.48252
