36
dc-STX_47_solv.log	Energy: -569640.3486261
C         -1.84257        0.53625       -0.39601
N         -2.02695       -0.89063       -0.57618
C         -1.02862       -1.75371       -0.74207
C         -3.06336        1.14409        0.26997
H         -1.72678        1.01940       -1.38070
N         -1.29462       -3.02652       -1.00664
H         -2.25713       -3.33199       -1.10266
H         -0.55778       -3.70400       -1.16082
H         -2.97516       -1.23747       -0.69341
N          0.24961       -1.34774       -0.62753
C          1.73829       -0.41074        0.90200
C          2.47229       -1.51753        0.15267
C          1.34563       -2.32842       -0.47016
O          2.48366        0.71965        1.19224
O          1.17893       -0.98346        2.04785
H          3.11919       -1.06906       -0.61298
H          3.09184       -2.11413        0.83278
H          1.01993       -3.13073        0.20721
H          1.61812       -2.76632       -1.43941
H         -3.94304        0.95109       -0.37010
H         -2.92139        2.23827        0.30843
O         -3.22002        0.58574        1.55192
C         -0.56241        0.78574        0.41501
C          0.61289       -0.03914       -0.12643
N          1.12253        0.87034       -1.15245
C          0.82184        2.13147       -0.79378
N         -0.07512        2.13574        0.19780
H         -0.75150        0.58101        1.47385
N          1.33916        3.20530       -1.34690
H          1.99611        0.67481       -1.63566
H         -0.62687        2.95792        0.42492
H          1.04238        4.12944       -1.05100
H          2.04368        3.12033       -2.07193
H          3.27683        0.44865        1.67449
H          0.81070       -0.27876        2.59863
H         -3.96581        1.02243        1.97826
