36
dc-STX_32_solv.log	Energy: -569640.2182290
C         -1.83747        0.55218       -0.39871
N         -2.02561       -0.87369       -0.58528
C         -1.03027       -1.73843       -0.75938
C         -3.05626        1.16033        0.26998
H         -1.72172        1.03896       -1.38158
N         -1.30219       -3.01099       -1.01969
H         -2.26633       -3.31223       -1.11262
H         -0.56921       -3.68756       -1.19451
H         -2.97536       -1.21911       -0.69454
N          0.25101       -1.33535       -0.65978
C          1.70722       -0.42214        0.90864
C          2.45779       -1.52639        0.16783
C          1.33823       -2.32426       -0.48402
O          2.46971        0.69112        1.23139
O          1.00974       -0.92899        2.00965
H          3.12606       -1.07808       -0.57972
H          3.06260       -2.13583        0.85237
H          0.99288       -3.12656        0.18321
H          1.62855       -2.76034       -1.44867
H         -2.91135        2.25390        0.31155
H         -3.93694        0.97181       -0.37016
O         -3.21330        0.59829        1.55027
C         -0.55651        0.79158        0.41232
C          0.61607       -0.03447       -0.13468
N          1.15052        0.88166       -1.13809
C          0.84850        2.14127       -0.77305
N         -0.06266        2.14106        0.20398
H         -0.72879        0.57501        1.47087
N          1.37806        3.21716       -1.31028
H          2.03091        0.68591       -1.60861
H         -0.60842        2.96527        0.43745
H          1.07956        4.14014       -1.01259
H          2.09073        3.13514       -2.02757
H          3.28538        0.39614        1.65772
H          1.59959       -1.50183        2.51749
H         -3.95498        1.03894        1.97969
