36
dc-STX_46_solv.log	Energy: -569641.0878573
C         -1.77547        0.75859       -0.38580
N         -2.10602       -0.63451       -0.62344
C         -1.21329       -1.61032       -0.77721
C         -2.92853        1.44605        0.34144
H         -1.63331        1.27144       -1.35189
N         -1.62426       -2.84023       -1.05862
H         -2.61342       -3.02975       -1.17914
H         -0.96879       -3.59246       -1.23227
H         -3.08098       -0.85978       -0.80767
N          0.09997       -1.36231       -0.62869
C          1.68166       -0.57860        0.89952
C          2.28539       -1.77155        0.16908
C          1.07147       -2.46066       -0.43570
O          2.65449        0.37244        1.18054
O          0.96965       -0.95749        2.03587
H          2.97748       -1.41396       -0.60568
H          2.83973       -2.42368        0.85582
H          0.64790       -3.19701        0.26244
H          1.29403       -2.95699       -1.38936
H         -3.83333        1.37382       -0.28732
H         -2.68560        2.51400        0.44005
O         -3.15036        0.94001        1.63495
C         -0.47032        0.84861        0.41448
C          0.60193       -0.10073       -0.13289
N          1.21135        0.74342       -1.15767
C          1.05915        2.02953       -0.79756
N          0.17585        2.13399        0.20357
H         -0.66379        0.65368        1.47414
N          1.68842        3.04000       -1.35285
H          2.04584        0.44594       -1.65823
H         -0.28207        3.01355        0.42488
H          1.49847        3.99072       -1.05305
H          2.37211        2.88058       -2.08548
H          2.27500        1.02207        1.78913
H          1.54307       -1.50787        2.58679
H         -3.51165        0.04806        1.55757
