36
dc-STX_10_solv.log	Energy: -569641.2639026
C         -1.36546       -1.26213       -0.58489
N         -1.66011       -1.04667        0.83152
C         -1.38582        0.15950        1.35492
C         -2.29610       -0.45059       -1.47843
H         -1.54264       -2.32630       -0.78853
N         -2.13079        0.67456        2.31864
H         -2.98279        0.20445        2.60607
H         -1.83401        1.49441        2.83644
H         -2.49921       -1.50220        1.18110
N         -0.33182        0.82570        0.87152
C          1.20533        1.42698       -0.77165
C          1.19530        2.52057        0.29100
C         -0.08244        2.26032        1.08240
O          2.48442        1.23502       -1.27154
O          0.27501        1.66314       -1.78410
H          2.08540        2.41299        0.92592
H          1.21246        3.51855       -0.16474
H         -0.93819        2.83309        0.69687
H          0.04624        2.48837        2.14947
H         -2.12392        0.62845       -1.31979
H         -2.04642       -0.67473       -2.53081
O         -3.61623       -0.81960       -1.15864
C          0.10670       -0.96616       -0.86139
C          0.65792        0.19499        0.01489
N          1.69966       -0.45690        0.78673
C          1.87477       -1.72965        0.41266
N          0.97706       -2.07226       -0.50363
H          0.23014       -0.71981       -1.92403
N          2.80476       -2.52645        0.89698
H          2.39066        0.05862        1.32383
H          0.88142       -3.00815       -0.88276
H          2.88059       -3.48300        0.56880
H          3.44994       -2.19153        1.60391
H          2.43559        0.58823       -1.99047
H          0.45062        2.53534       -2.16397
H         -4.21407       -0.19407       -1.58240
