36
dc-STX_3_solv.log	Energy: -569643.6201272
C         -0.76204       -1.66076       -0.95779
N         -1.13428       -1.87959        0.43568
C         -1.33877       -0.81271        1.22016
C         -1.95642       -1.15612       -1.78112
H         -0.47922       -2.63336       -1.38097
N         -2.21824       -0.84907        2.20771
H         -2.84083       -1.64398        2.30695
H         -2.24779       -0.12047        2.91185
H         -1.69704       -2.70202        0.63537
N         -0.60886        0.29216        1.00771
C          0.45069        1.79543       -0.43257
C         -0.00806        2.55853        0.80276
C         -1.02999        1.63127        1.44939
O          1.66085        2.27738       -0.89601
O         -0.52477        1.79551       -1.44034
H          0.85437        2.72248        1.46332
H         -0.43332        3.53411        0.53573
H         -2.05134        1.82034        1.08688
H         -1.01921        1.71418        2.54438
H         -2.68945       -1.97472       -1.83016
H         -1.60800       -0.96099       -2.81047
O         -2.61597       -0.04498       -1.22721
C          0.48421       -0.77426       -1.01723
C          0.51646        0.32339        0.08666
N          1.77056        0.05396        0.76025
C          2.40974       -0.99721        0.23965
N          1.70335       -1.52079       -0.75654
H          0.53889       -0.30437       -2.00831
N          3.57389       -1.44470        0.66352
H          2.16197        0.65570        1.47791
H          1.99217       -2.32957       -1.29609
H          4.00617       -2.24869        0.22154
H          4.04088       -0.99726        1.44461
H          1.90503        1.79006       -1.69695
H         -0.75225        2.71245       -1.65059
H         -2.04183        0.73363       -1.33441
