36
dc-STX_37_solv.log	Energy: -569640.4615978
C         -1.35950       -1.25537       -0.61151
N         -1.64221       -1.09613        0.81262
C         -1.34092        0.07462        1.39576
C         -2.28853       -0.40329       -1.46785
H         -1.54505       -2.30889       -0.85833
N         -2.05340        0.53769        2.41006
H         -2.89891        0.05590        2.69703
H         -1.73233        1.32169        2.96710
H         -2.47454       -1.56763        1.15621
N         -0.29718        0.76509        0.92331
C          1.11398        1.48005       -0.77553
C          1.16865        2.51624        0.34475
C         -0.03405        2.18181        1.22475
O          2.30783        1.20586       -1.42094
O          0.11850        1.89213       -1.66620
H          2.11076        2.39258        0.89514
H          1.12568        3.53534       -0.05710
H         -0.92260        2.77398        0.96316
H          0.18574        2.32444        2.29213
H         -2.03521       -0.57695       -2.52916
H         -2.11930        0.66715       -1.25820
O         -3.60875       -0.78948       -1.16955
C          0.11417       -0.96441       -0.87865
C          0.66697        0.19857       -0.00581
N          1.77300       -0.43312        0.69106
C          1.92297       -1.71439        0.34359
N          0.97413       -2.07503       -0.51386
H          0.24536       -0.73914       -1.94615
N          2.87426       -2.50468        0.79664
H          2.44733        0.07839        1.25183
H          0.89667       -3.00096       -0.92045
H          2.92782       -3.46929        0.48812
H          3.55768       -2.15711        1.46012
H          2.62731        2.02307       -1.82807
H          0.08628        1.28140       -2.41616
H         -4.20600       -0.14175       -1.55946
