36
dc-STX_43_solv.log	Energy: -569640.6815374
C         -0.93932       -1.58177       -0.80605
N         -1.09973       -1.89225        0.60922
C         -1.14332       -0.87690        1.48237
C         -2.21633       -0.90207       -1.34558
H         -0.78717       -2.52799       -1.33982
N         -1.81075       -0.97598        2.62031
H         -2.38860       -1.78992        2.80252
H         -1.70312       -0.28407        3.35374
H         -1.58070       -2.75004        0.86367
N         -0.49978        0.25737        1.17081
C          0.27995        1.80370       -0.38033
C          0.02277        2.54354        0.93300
C         -0.81889        1.56988        1.75588
O          1.40126        2.21073       -1.08360
O         -0.86730        1.78797       -1.18640
H          0.98628        2.74486        1.42100
H         -0.48708        3.50124        0.76498
H         -1.89754        1.75400        1.64772
H         -0.55731        1.60810        2.82233
H         -2.55285       -0.13339       -0.62933
H         -3.00266       -1.66945       -1.39832
O         -2.04625       -0.35223       -2.62695
C          0.32095       -0.74476       -0.99673
C          0.48097        0.34186        0.09745
N          1.82668        0.10437        0.57789
C          2.38380       -0.96841        0.00822
N          1.53801       -1.52624       -0.85240
H          0.29807       -0.27945       -1.98970
N          3.59826       -1.40536        0.27200
H          2.29580        0.69440        1.25745
H          1.78264       -2.29617       -1.46573
H          3.96581       -2.21950       -0.20820
H          4.17757       -0.93039        0.95544
H          1.34283        3.16456       -1.23087
H         -1.24225        2.67763       -1.23528
H         -1.64375        0.51999       -2.49019
