36
dc-STX_4_solv.log	Energy: -569640.2204911
C          1.37776        1.25666       -0.57340
N          1.66643        1.02850        0.84278
C          1.37723       -0.17588        1.36233
C          2.30883        0.44883       -1.46960
H          1.56140        2.32156       -0.76717
N          2.11410       -0.70196        2.32638
H          2.96964       -0.24102        2.61828
H          1.80625       -1.51899        2.84221
H          2.51002        1.47262        1.19668
N          0.31608       -0.82867        0.87628
C         -1.19823       -1.41092       -0.79376
C         -1.22154       -2.50868        0.27093
C          0.05072       -2.26302        1.07737
O         -2.41486       -1.14468       -1.41377
O         -0.24774       -1.65788       -1.77694
H         -2.11494       -2.39197        0.90244
H         -1.24652       -3.50633       -0.18495
H          0.90421       -2.84212        0.69649
H         -0.08922       -2.49460        2.14224
H          2.06180        0.67983       -2.52114
H          2.13450       -0.63081       -1.31790
O          3.62896        0.81385       -1.14486
C         -0.09494        0.97080       -0.85919
C         -0.65632       -0.18897        0.00946
N         -1.70770        0.46422        0.76759
C         -1.86856        1.74114        0.40335
N         -0.95984        2.08186       -0.50251
H         -0.21594        0.72710       -1.92246
N         -2.79520        2.54247        0.88698
H         -2.36805       -0.03606        1.35516
H         -0.86981        3.01302       -0.89421
H         -2.85728        3.50343        0.56896
H         -3.45196        2.20640        1.58255
H         -3.14386       -1.34736       -0.81453
H         -0.43466       -2.52011       -2.17360
H          4.22666        0.19031       -1.57171
