36
dc-STX_0_solv.log	Energy: -569641.2016856
C         -0.75954       -1.65918       -0.95301
N         -1.13277       -1.88159        0.44010
C         -1.33448       -0.81776        1.23050
C         -1.93675       -1.15145       -1.77920
H         -0.48237       -2.63144       -1.37938
N         -2.21041       -0.85904        2.22021
H         -2.82433       -1.65999        2.32578
H         -2.23909       -0.13057        2.92473
H         -1.68467       -2.71077        0.64211
N         -0.61494        0.29148        1.01082
C          0.43915        1.78525       -0.44365
C         -0.03201        2.55798        0.79155
C         -1.04805        1.63009        1.44586
O          1.68848        2.14642       -0.91676
O         -0.47349        1.87708       -1.49968
H          0.82672        2.72670        1.45654
H         -0.46207        3.52745        0.51306
H         -2.07195        1.80643        1.08268
H         -1.03949        1.71729        2.54068
H         -2.71334       -1.93251       -1.78698
H         -1.59689       -0.99263       -2.81611
O         -2.44997        0.04005       -1.21463
C          0.48612       -0.77100       -1.01166
C          0.51513        0.32111        0.09471
N          1.76327        0.04562        0.77852
C          2.41767       -0.98407        0.23453
N          1.70576       -1.51581       -0.75441
H          0.53617       -0.29024       -1.99753
N          3.59814       -1.41075        0.63452
H          2.17382        0.67491        1.46097
H          2.01345       -2.30068       -1.31817
H          4.03941       -2.20191        0.17858
H          4.06756       -0.96185        1.41330
H          1.65430        3.07823       -1.17291
H         -1.28536        1.35022       -1.33024
H         -3.27877        0.26770       -1.65473
