36
dc-STX_13_solv.log	Energy: -569640.6024022
C          1.39486        1.24182       -0.55766
N          1.68355        0.99140        0.85442
C          1.37788       -0.21573        1.35865
C          2.32022        0.43042       -1.46865
H          1.58977        2.30789       -0.73685
N          2.10888       -0.76538        2.31403
H          2.97046       -0.31945        2.61160
H          1.79186       -1.58662        2.81755
H          2.53865        1.41343        1.20812
N          0.30634       -0.84626        0.86636
C         -1.21774       -1.38780       -0.80778
C         -1.25757       -2.49634        0.24540
C          0.01836       -2.27806        1.05392
O         -2.43032       -1.09705       -1.42472
O         -0.27088       -1.63827       -1.79354
H         -2.14899       -2.37335        0.87857
H         -1.29742       -3.48860       -0.22104
H          0.86263       -2.86692        0.66756
H         -0.12492       -2.51710        2.11677
H          2.08379        0.68114       -2.51711
H          2.13065       -0.64523       -1.33643
O          3.67383        0.65705       -1.16047
C         -0.08140        0.97954       -0.84691
C         -0.65788       -0.18258        0.00837
N         -1.69964        0.47612        0.77520
C         -1.84621        1.75819        0.42306
N         -0.93390        2.09719       -0.47973
H         -0.20420        0.74910       -1.91309
N         -2.76387        2.56495        0.91484
H         -2.36828       -0.02310        1.35431
H         -0.83307        3.03108       -0.86209
H         -2.81542        3.52970        0.60654
H         -3.42344        2.22949        1.60805
H         -3.16165       -1.29408       -0.82651
H         -0.46941       -2.49384       -2.19888
H          3.88533        1.56973       -1.39358
