36
dc-STX_45_solv.log	Energy: -569640.2577457
C         -1.77339        0.77386       -0.38621
N         -2.11582       -0.61554       -0.62801
C         -1.23117       -1.59858       -0.77938
C         -2.92304        1.47001        0.33790
H         -1.62390        1.28695       -1.35104
N         -1.65205       -2.82528       -1.06032
H         -2.64253       -3.00594       -1.18374
H         -1.00320       -3.58317       -1.23430
H         -3.09209       -0.83179       -0.81589
N          0.08438       -1.36195       -0.62796
C          1.67323       -0.58696        0.90176
C          2.26150       -1.79716        0.17910
C          1.03830       -2.47316       -0.41963
O          2.59263        0.40339        1.23629
O          0.96057       -0.95158        2.03814
H          2.95548       -1.46160       -0.60575
H          2.80837       -2.45098        0.87016
H          0.60201       -3.19495        0.28585
H          1.25588       -2.98379       -1.36688
H         -3.82634        1.40545       -0.29402
H         -2.67192        2.53584        0.43821
O         -3.15336        0.96474        1.63024
C         -0.46922        0.85220        0.41780
C          0.59641       -0.10452       -0.13017
N          1.21657        0.73925       -1.14932
C          1.07583        2.02518       -0.77954
N          0.18239        2.13386        0.20899
H         -0.66595        0.65598        1.47646
N          1.72440        3.03088       -1.32247
H          2.05001        0.43698       -1.64927
H         -0.26450        3.01663        0.43838
H          1.54346        3.98227       -1.01956
H          2.41048        2.86721       -2.05174
H          3.37720        0.33195        0.67855
H          1.53665       -1.48743        2.60016
H         -3.51770        0.07418        1.55095
