36
dc-STX_2_solv.log	Energy: -569642.5118683
C         -0.78792       -1.66383       -0.93859
N         -1.16215       -1.86077        0.45837
C         -1.34995       -0.78185        1.23069
C         -1.97762       -1.15401       -1.76523
H         -0.51814       -2.64514       -1.35008
N         -2.23069       -0.79096        2.21748
H         -2.86801       -1.57270        2.32610
H         -2.24810       -0.05315        2.91250
H         -1.73989       -2.67067        0.66676
N         -0.60077        0.30803        1.00771
C          0.47030        1.77575       -0.46158
C          0.03161        2.56416        0.76981
C         -1.00060        1.65993        1.43306
O          1.66793        2.17367       -1.03872
O         -0.50986        1.77791       -1.45570
H          0.89610        2.72144        1.43125
H         -0.37808        3.54369        0.49339
H         -2.02027        1.85979        1.07185
H         -0.98368        1.75660        2.52681
H         -2.72057       -1.96414       -1.80493
H         -1.62915       -0.97288       -2.79707
O         -2.62307       -0.02986       -1.22076
C          0.46871       -0.79227       -1.01241
C          0.51794        0.31250        0.08088
N          1.77496        0.03817        0.74920
C          2.39924       -1.02554        0.23517
N          1.68050       -1.55079       -0.75094
H          0.52428       -0.32991       -2.00642
N          3.56066       -1.48205        0.65682
H          2.15745        0.61610        1.49109
H          1.96659       -2.35575       -1.29763
H          3.98025       -2.29652        0.22177
H          4.03824       -1.03149        1.42959
H          2.23338        2.58458       -0.37266
H         -0.71775        2.69495       -1.68468
H         -2.04051        0.74093       -1.33741
