36
dc-STX_24_solv.log	Energy: -569640.2180627
C          1.38336        1.43825       -0.05891
N          1.58435        0.94011        1.29660
C          1.34544       -0.35386        1.55609
C          2.47054        0.90335       -1.00163
H          1.47188        2.53210       -0.01951
N          2.01856       -0.99964        2.49464
H          2.80452       -0.55212        2.95496
H          1.72801       -1.91653        2.81556
H          2.30346        1.39182        1.85461
N          0.40034       -0.97414        0.84083
C         -0.88390       -1.32576       -1.06967
C         -0.89747       -2.61339       -0.24571
C          0.25875       -2.43573        0.73439
O         -2.05861       -1.04072       -1.75928
O          0.17515       -1.29228       -1.96775
H         -1.85480       -2.69863        0.28952
H         -0.77865       -3.49760       -0.88458
H          1.19797       -2.86058        0.35207
H          0.03662       -2.88626        1.71150
H          2.40252       -0.19292       -1.06212
H          3.45294        1.15906       -0.56867
O          2.32527        1.40068       -2.30816
C         -0.02463        1.10076       -0.54631
C         -0.54614       -0.25126        0.00955
N         -1.72587        0.14621        0.75569
C         -1.98535        1.45202        0.62261
N         -1.02707        2.04400       -0.07981
H         -0.01099        1.07623       -1.64259
N         -3.04112        2.05599        1.12910
H         -2.39023       -0.51676        1.14398
H         -1.00796        3.03538       -0.29343
H         -3.17651        3.05182        0.99294
H         -3.72545        1.53103        1.66256
H         -2.81388       -1.42581       -1.29779
H          0.15191       -2.09790       -2.50169
H          2.48621        2.35224       -2.28757
