36
dc-STX_30_solv.log	Energy: -569641.5963715
C         -0.93873       -1.57730       -0.81641
N         -1.07841       -1.90921        0.59601
C         -1.10626       -0.90857        1.48681
C         -2.22671       -0.89978       -1.33082
H         -0.78686       -2.51484       -1.36551
N         -1.75555       -1.02718        2.63353
H         -2.33178       -1.84335        2.81066
H         -1.63949       -0.34587        3.37554
H         -1.55825       -2.76969        0.84351
N         -0.46733        0.23117        1.18640
C          0.24471        1.82689       -0.35707
C          0.02437        2.53018        0.97831
C         -0.77690        1.52927        1.80806
O          1.31181        2.38411       -1.03922
O         -0.91712        1.80096       -1.13553
H          1.00034        2.73930        1.43767
H         -0.50490        3.48177        0.84273
H         -1.86018        1.70527        1.74006
H         -0.48051        1.54751        2.86591
H         -2.55953       -0.14251       -0.60102
H         -3.00836       -1.67190       -1.38356
O         -2.07593       -0.33345       -2.60756
C          0.31444       -0.73060       -1.01147
C          0.48010        0.34999        0.08665
N          1.84533        0.13909        0.52388
C          2.39018       -0.94780       -0.03169
N          1.53558       -1.50876       -0.88129
H          0.28098       -0.26095       -2.00342
N          3.60299       -1.39004        0.23075
H          2.29950        0.69541        1.24123
H          1.77113       -2.28482       -1.49050
H          3.96237       -2.21258       -0.24129
H          4.18991       -0.90990        0.90407
H          1.38644        1.94905       -1.90099
H         -1.24040        2.70525       -1.25040
H         -1.68008        0.54070       -2.46537
