36
dc-STX_33_solv.log	Energy: -569641.3433057
C         -1.35217       -1.27236       -0.60877
N         -1.65514       -1.06726        0.80778
C         -1.39649        0.13700        1.34366
C         -2.28429       -0.45573       -1.50958
H         -1.52230       -2.33595       -0.81927
N         -2.14843        0.63434        2.31147
H         -2.99389        0.15018        2.59494
H         -1.86086        1.45200        2.83798
H         -2.46713       -1.55918        1.17192
N         -0.35064        0.81810        0.86371
C          1.20498        1.43671       -0.75633
C          1.17418        2.52450        0.31176
C         -0.11140        2.25262        1.08650
O          0.28821        1.67339       -1.78078
O          2.49249        1.25491       -1.23858
H          2.05708        2.41948        0.95704
H          1.19088        3.52481       -0.13891
H         -0.96583        2.82338        0.69525
H          0.00488        2.47472        2.15620
H         -2.05565       -0.71096       -2.55467
H         -2.08746        0.62245       -1.38291
O         -3.63644       -0.76868       -1.27493
C          0.11971       -0.96226       -0.87369
C          0.65374        0.19712        0.01567
N          1.68835       -0.45360        0.79805
C          1.87866       -1.72189        0.41516
N          0.99873       -2.06252       -0.51870
H          0.24756       -0.70641       -1.93365
N          2.80644       -2.51650        0.90726
H          2.37132        0.06345        1.34399
H          0.90764       -2.99889       -0.89780
H          2.89553       -3.46880        0.57022
H          3.43863       -2.18341        1.62666
H          0.46235        2.54986       -2.15129
H          2.45853        0.61293       -1.96264
H         -3.93210       -0.28871       -0.49216
