36
dc-STX_16_solv.log	Energy: -569641.3445721
C          1.35164        1.27221       -0.60992
N          1.65424        1.06893        0.80696
C          1.39655       -0.13529        1.34348
C          2.28393        0.45432       -1.50949
H          1.52180        2.33552       -0.82177
N          2.14901       -0.63169        2.31137
H          2.99431       -0.14693        2.59433
H          1.86219       -1.44938        2.83822
H          2.46620        1.56134        1.17047
N          0.35106       -0.81726        0.86399
C         -1.20469       -1.43752       -0.75539
C         -1.17308       -2.52479        0.31325
C          0.11231       -2.25168        1.08787
O         -0.28824       -1.67433       -1.78008
O         -2.49245       -1.25650       -1.23727
H         -2.05610       -2.42017        0.95842
H         -1.18906       -3.52528       -0.13705
H          0.96699       -2.82247        0.69721
H         -0.00404       -2.47290        2.15774
H          2.05535        0.70800       -2.55496
H          2.08715       -0.62368       -1.38128
O          3.63606        0.76763       -1.27522
C         -0.12017        0.96172       -0.87453
C         -0.65372       -0.19723        0.01565
N         -1.68837        0.45368        0.79781
C         -1.87891        1.72175        0.41436
N         -0.99936        2.06199       -0.52003
H         -0.24813        0.70520       -1.93432
N         -2.80659        2.51653        0.90636
H         -2.37109       -0.06320        1.34421
H         -0.90821        2.99831       -0.89927
H         -2.89581        3.46868        0.56896
H         -3.43846        2.18376        1.62619
H         -0.46198       -2.55115       -2.14994
H         -2.45903       -0.61489       -1.96169
H          3.93178        0.28870       -0.49183
