36
dc-STX_39_solv.log	Energy: -569640.3214110
C         -1.83682        0.42186       -0.00034
N         -1.96070       -1.00058       -0.24337
C         -0.94914       -1.79923       -0.56434
C         -2.98396        0.86420        0.89045
H         -1.91350        0.95955       -0.96106
N         -1.17548       -3.07701       -0.84267
H         -2.12523       -3.43301       -0.84765
H         -0.43228       -3.69098       -1.15285
H         -2.91021       -1.35934       -0.31829
N          0.31260       -1.32879       -0.57880
C          1.93698       -0.30162        0.75481
C          2.62157       -1.38327       -0.07911
C          1.46477       -2.25511       -0.54054
O          2.70704        0.83412        0.98999
O          1.46646       -0.79491        1.96644
H          3.13996       -0.92443       -0.93349
H          3.35727       -1.93903        0.51596
H          1.26080       -3.05559        0.18494
H          1.63906       -2.70271       -1.52782
H         -2.90882        1.95340        1.05465
H         -2.89505        0.36314        1.87005
O         -4.18055        0.51332        0.23508
C         -0.47340        0.73289        0.62724
C          0.65735       -0.00799       -0.10232
N          0.96842        0.95197       -1.15943
C          0.65593        2.18472       -0.72080
N         -0.09377        2.11368        0.38413
H         -0.46841        0.48898        1.69515
N          1.03063        3.30104       -1.30414
H          1.76490        0.81535       -1.77802
H         -0.65420        2.89695        0.70696
H          0.72977        4.19727       -0.93541
H          1.62807        3.27748       -2.12383
H          3.41254        0.90054        0.33422
H          2.20493       -1.20623        2.43627
H         -4.90486        0.57752        0.86767
