36
dc-STX_6_solv.log	Energy: -569639.6626559
C         -1.34150       -1.47556       -0.09549
N         -1.54024       -1.03357        1.27904
C         -1.33377        0.25645        1.58291
C         -2.44214       -0.92913       -1.00479
H         -1.40767       -2.57119       -0.10172
N         -2.01310        0.84875        2.55120
H         -2.77948        0.36241        3.00499
H         -1.73666        1.75523        2.91188
H         -2.23811       -1.52710        1.82902
N         -0.41596        0.92881        0.87909
C          0.82968        1.37906       -1.03670
C          0.81271        2.64082       -0.17448
C         -0.32854        2.39700        0.80903
O          2.00337        1.15131       -1.74826
O         -0.23989        1.33915       -1.92247
H          1.77241        2.73963        0.35467
H          0.65975        3.54002       -0.78457
H         -1.28562        2.79593        0.44349
H         -0.11539        2.83184        1.79480
H         -2.37549        0.17126       -1.04578
H         -3.41658       -1.19581       -0.55833
O         -2.27879       -1.50422       -2.27889
C          0.05491       -1.08678       -0.58060
C          0.54042        0.26269        0.01262
N          1.74173       -0.12042        0.73074
C          2.03333       -1.41540        0.56363
N          1.08541       -2.01455       -0.14685
H          0.03376       -1.03001       -1.67540
N          3.10789       -2.00466        1.04742
H          2.38817        0.54939        1.13661
H          1.09044       -3.00039       -0.38506
H          3.26426       -2.99429        0.89019
H          3.78406       -1.47552        1.58704
H          2.75228        1.54791       -1.28616
H         -0.24205        2.15699       -2.43789
H         -2.73637       -0.95176       -2.92212
