36
dc-STX_44_solv.log	Energy: -569640.5433002
C         -1.83877        0.39180        0.00559
N         -1.93666       -1.03452       -0.22472
C         -0.91267       -1.80988       -0.56446
C         -2.99358        0.82159        0.89252
H         -1.92535        0.91983       -0.95969
N         -1.11765       -3.08886       -0.85342
H         -2.06087       -3.46191       -0.85340
H         -0.36630       -3.68747       -1.17349
H         -2.87948       -1.41077       -0.29783
N          0.33881       -1.31403       -0.58893
C          1.93331       -0.27834        0.75640
C          2.64764       -1.32844       -0.09126
C          1.51127       -2.21486       -0.57907
O          2.64845        0.89396        0.95561
O          1.46070       -0.82481        1.95332
H          3.16416       -0.83678       -0.92686
H          3.39007       -1.88375        0.49708
H          1.32588       -3.04114        0.12190
H          1.69465       -2.62823       -1.57956
H         -2.93720        1.91309        1.04849
H         -2.89738        0.32931        1.87584
O         -4.18332        0.44613        0.23825
C         -0.48080        0.73043        0.62945
C          0.66350        0.01052       -0.10275
N          0.95707        0.97613       -1.15795
C          0.61752        2.20267       -0.72264
N         -0.12823        2.11805        0.38421
H         -0.46832        0.48726        1.69747
N          0.96655        3.32490       -1.31013
H          1.76423        0.85732       -1.76592
H         -0.70483        2.89001        0.70598
H          0.64585        4.21536       -0.94398
H          1.56475        3.31185       -2.12953
H          3.56469        0.67059        1.16620
H          2.18527       -1.29706        2.38517
H         -4.90999        0.50573        0.86860
