36
dc-STX_50_solv.log	Energy: -569640.6192314
C         -0.92873       -1.69992       -0.73480
N         -1.35312       -1.64753        0.66319
C         -1.51449       -0.44387        1.23813
C         -2.06580       -1.30278       -1.66893
H         -0.68474       -2.74511       -0.96223
N         -2.45845       -0.24317        2.14278
H         -3.15085       -0.96352        2.31942
H         -2.47758        0.59525        2.71217
H         -2.00975       -2.36770        0.95355
N         -0.66688        0.53522        0.90172
C          0.78583        1.68278       -0.53560
C          0.32731        2.63325        0.56434
C         -0.92057        1.96542        1.12468
O          2.12475        1.88830       -0.84084
O         -0.02497        1.75559       -1.66676
H          1.11338        2.70562        1.32922
H          0.12953        3.63773        0.16906
H         -1.83044        2.25785        0.57966
H         -1.05459        2.18787        2.19161
H         -2.86653       -2.05554       -1.56536
H         -1.69279       -1.35032       -2.70744
O         -2.53088       -0.01815       -1.33378
C          0.35776       -0.88458       -0.92548
C          0.51046        0.27632        0.09775
N          1.62731       -0.16648        0.91560
C          2.23932       -1.22583        0.37185
N          1.55659       -1.67080       -0.67781
H          0.37689       -0.48446       -1.94560
N          3.35813       -1.74839        0.82926
H          2.11062        0.46891        1.54442
H          1.75971       -2.54291       -1.15477
H          3.76864       -2.55991        0.38026
H          3.81536       -1.34691        1.64060
H          2.35484        1.31646       -1.58761
H         -0.05953        2.67676       -1.95877
H         -3.34513        0.14731       -1.82188
