36
dc-STX_41_solv.log	Energy: -569641.1484170
C         -1.83700        0.39376        0.00131
N         -1.93839       -1.03402       -0.22089
C         -0.91649       -1.81500       -0.55576
C         -2.98951        0.83237        0.88676
H         -1.92172        0.91717       -0.96668
N         -1.12426       -3.09617       -0.83243
H         -2.06803       -3.46785       -0.82744
H         -0.37380       -3.69922       -1.14632
H         -2.88193       -1.40970       -0.28702
N          0.33537       -1.32100       -0.58685
C          1.94269       -0.28342        0.75150
C          2.64958       -1.33020       -0.10108
C          1.51072       -2.21864       -0.58035
O          2.75355        0.82795        0.94265
O          1.47534       -0.81023        1.95433
H          3.16296       -0.83901       -0.93881
H          3.39453       -1.88323        0.48506
H          1.33109       -3.04233        0.12531
H          1.68824       -2.63613       -1.58011
H         -2.89425        0.34498        1.87264
H         -2.92831        1.92445        1.03701
O         -4.18145        0.45838        0.23578
C         -0.47768        0.72867        0.62377
C          0.66205        0.00262       -0.10632
N          0.95947        0.96387       -1.16535
C          0.62470        2.19256       -0.73673
N         -0.11368        2.11435        0.37810
H         -0.46712        0.48791        1.69260
N          0.97157        3.31183       -1.33023
H          1.75710        0.83690       -1.78423
H         -0.69165        2.88872        0.69245
H          0.65305        4.20410       -0.96644
H          1.56516        3.29483       -2.15307
H          2.34292        1.39200        1.61334
H          2.21485       -1.23724        2.40859
H         -4.90742        0.52668        0.86605
