36
dc-STX_22_solv.log	Energy: -569640.7834405
C          1.38444        1.24838       -0.56368
N          1.67742        1.00180        0.84785
C          1.38422       -0.20906        1.35030
C          2.31168        0.44018       -1.47582
H          1.57225        2.31531       -0.74532
N          2.12093       -0.75237        2.30478
H          2.97862       -0.29863        2.60174
H          1.81255       -1.57730        2.80755
H          2.52855        1.43221        1.20097
N          0.31911       -0.84976        0.85711
C         -1.22377       -1.38642       -0.79106
C         -1.24151       -2.50341        0.25325
C          0.04198       -2.28224        1.04867
O         -2.46252       -1.03415       -1.30861
O         -0.28526       -1.64345       -1.79499
H         -2.12814       -2.38293        0.89050
H         -1.28263       -3.49582       -0.21463
H          0.88625       -2.86673        0.65576
H         -0.09154       -2.52144        2.11283
H          2.07381        0.69100       -2.52393
H          2.12471       -0.63603       -1.34426
O          3.66490        0.66975       -1.16843
C         -0.09070        0.97587       -0.84942
C         -0.66110       -0.18538        0.01486
N         -1.68459        0.47713        0.80202
C         -1.85069        1.75169        0.42813
N         -0.95035        2.08897       -0.48710
H         -0.21232        0.73924       -1.91406
N         -2.77471        2.55431        0.91419
H         -2.38565       -0.03453        1.32976
H         -0.85115        3.02342       -0.86869
H         -2.84316        3.51226        0.58848
H         -3.42329        2.22212        1.61930
H         -2.87166       -1.82099       -1.69392
H         -0.38035       -2.55960       -2.08825
H          3.87437        1.58305       -1.40093
