36
dc-STX_38_solv.log	Energy: -569640.4030299
C          1.35618        1.45779       -0.08729
N          1.56293        0.99043        1.27791
C          1.34969       -0.30309        1.56036
C          2.44975        0.91744       -1.01987
H          1.43024        2.55331       -0.07184
N          2.02694       -0.91617        2.51741
H          2.79733       -0.44259        2.97785
H          1.74622       -1.82766        2.86169
H          2.26406        1.47198        1.83406
N          0.42633       -0.95659        0.84566
C         -0.87235       -1.35186       -1.03786
C         -0.84701       -2.63284       -0.20440
C          0.31753       -2.42160        0.75946
O          0.18154       -1.32049       -1.95510
O         -2.09176       -1.04950       -1.62792
H         -1.79741       -2.72508        0.33889
H         -0.71873       -3.52414       -0.83248
H          1.26245       -2.82956        0.37302
H          0.11394       -2.86563        1.74325
H          2.39352       -0.18054       -1.05972
H          3.42921        1.19206       -0.59209
O          2.29886        1.38788       -2.33554
C         -0.04639        1.08922       -0.56836
C         -0.54477       -0.26134        0.01678
N         -1.71471        0.13398        0.77848
C         -2.00453        1.42956        0.60666
N         -1.06663        2.02220       -0.12229
H         -0.02934        1.04254       -1.66352
N         -3.06919        2.02486        1.10435
H         -2.38858       -0.53670        1.13540
H         -1.05923        3.01176       -0.34458
H         -3.22589        3.01380        0.94304
H         -3.73768        1.50102        1.65855
H          0.22534       -2.17039       -2.41267
H         -2.36615       -1.80039       -2.17144
H          2.44343        2.34238       -2.33254
