36
dc-STX_29_solv.log	Energy: -569641.6214769
C         -1.37995       -1.24866       -0.57260
N         -1.67522       -1.01624        0.84066
C         -1.38480        0.19069        1.35395
C         -2.30507       -0.43078       -1.47833
H         -1.56739       -2.31368       -0.76568
N         -2.12279        0.72405        2.31310
H         -2.98029        0.26698        2.60534
H         -1.81604        1.54532        2.82279
H         -2.52503       -1.45254        1.18950
N         -0.32177        0.83860        0.86569
C          1.21842        1.40901       -0.78473
C          1.22512        2.51054        0.26975
C         -0.05330        2.27126        1.06676
O          2.49296        1.19787       -1.28826
O          0.28676        1.64818       -1.79524
H          2.11574        2.39671        0.90285
H          1.25285        3.50492       -0.19325
H         -0.90291        2.85241        0.68022
H          0.08110        2.50416        2.13214
H         -2.11659        0.64393       -1.33698
H         -2.06678       -0.67253       -2.52848
O         -3.65880       -0.66106       -1.17388
C          0.09584       -0.97412       -0.85129
C          0.65981        0.18954        0.01335
N          1.69633       -0.46576        0.78924
C          1.85764       -1.74386        0.42772
N          0.95503       -2.08611       -0.48383
H          0.22173       -0.73942       -1.91649
N          2.78024       -2.54525        0.91885
H          2.39141        0.04717        1.32350
H          0.85086       -3.02402       -0.85551
H          2.84559       -3.50598        0.60078
H          3.42960       -2.20975        1.62166
H          2.43223        0.54680       -2.00230
H          0.47045        2.51550       -2.18242
H         -3.86896       -1.57273       -1.41213
