36
dc-STX_5_solv.log	Energy: -569641.2621945
C          1.36439        1.26269       -0.58578
N          1.65922        1.04868        0.83082
C          1.38560       -0.15715        1.35536
C          2.29512        0.45056       -1.47867
H          1.54113        2.32674       -0.79044
N          2.13077       -0.67091        2.31962
H          2.98249       -0.20008        2.60672
H          1.83433       -1.49042        2.83815
H          2.49786        1.50528        1.18008
N          0.33206       -0.82447        0.87252
C         -1.20345       -1.42839       -0.77118
C         -1.19288       -2.52129        0.29215
C          0.08424       -2.25928        1.08398
O         -2.48240       -1.23828       -1.27215
O         -0.27208       -1.66415       -1.78278
H         -2.08339       -2.41414        0.92656
H         -1.20890       -3.51960       -0.16293
H          0.94081       -2.83123        0.69906
H         -0.04462       -2.48705        2.15108
H          2.04530        0.67365       -2.53125
H          2.12323       -0.62836       -1.31903
O          3.61516        0.82027       -1.15926
C         -0.10762        0.96587       -0.86177
C         -0.65796       -0.19533        0.01498
N         -1.70084        0.45594        0.78582
C         -1.87643        1.72859        0.41164
N         -0.97859        2.07159       -0.50436
H         -0.23112        0.71898       -1.92428
N         -2.80698        2.52501        0.89558
H         -2.39139       -0.05981        1.32328
H         -0.88299        3.00762       -0.88313
H         -2.88324        3.48143        0.56718
H         -3.45239        2.18976        1.60215
H         -2.43420       -0.59085       -1.99056
H         -0.44707       -2.53641       -2.16280
H          4.21309        0.19322       -1.58063
