36
dc-STX_18_solv.log	Energy: -569641.6212554
C          1.37963        1.24855       -0.57329
N          1.67486        1.01717        0.84012
C          1.38475       -0.18959        1.35398
C          2.30482        0.43004       -1.47837
H          1.56700        2.31343       -0.76718
N          2.12284       -0.72217        2.31352
H          2.98027       -0.26480        2.60545
H          1.81626       -1.54315        2.82377
H          2.52461        1.45376        1.18869
N          0.32202       -0.83814        0.86589
C         -1.21816       -1.40949       -0.78417
C         -1.22436       -2.51078        0.27053
C          0.05408       -2.27085        1.06737
O         -2.49288       -1.19886       -1.28750
O         -0.28665       -1.64868       -1.79483
H         -2.11499       -2.39722        0.90365
H         -1.25173       -3.50526       -0.19229
H          0.90382       -2.85180        0.68086
H         -0.08021       -2.50357        2.13280
H          2.06662        0.67102       -2.52872
H          2.11634       -0.64458       -1.33625
O          3.65854        0.66056       -1.17400
C         -0.09613        0.97373       -0.85175
C         -0.65978       -0.18966        0.01338
N         -1.69639        0.46575        0.78906
C         -1.85786        1.74374        0.42721
N         -0.95540        2.08576       -0.48460
H         -0.22207        0.73868       -1.91687
N         -2.78045        2.54521        0.91823
H         -2.39130       -0.04707        1.32364
H         -0.85124        3.02357       -0.85655
H         -2.84609        3.50575        0.59967
H         -3.42977        2.20983        1.62114
H         -2.43263       -0.54775       -2.00156
H         -0.46998       -2.51630       -2.18148
H          3.86877        1.57202       -1.41299
