36
dc-STX_31_solv.log	Energy: -569640.8213998
C         -1.82341        0.60084       -0.39780
N         -2.04837       -0.81861       -0.59578
C         -1.07998       -1.71616       -0.75594
C         -3.02572        1.23235        0.28003
H         -1.69934        1.09356       -1.37682
N         -1.39030       -2.98021       -1.01535
H         -2.36284       -3.25326       -1.10750
H         -0.67786       -3.68294       -1.17083
H         -3.00737       -1.13458       -0.71393
N          0.21180       -1.35391       -0.64213
C          1.71623       -0.45726        0.90233
C          2.42109       -1.59020        0.16668
C          1.27201       -2.36923       -0.45527
O          2.60729        0.56570        1.20183
O          1.02545       -0.90381        2.02717
H          3.09013       -1.17195       -0.59757
H          3.01970       -2.20211        0.85337
H          0.91090       -3.14607        0.23385
H          1.53925       -2.83498       -1.41272
H         -3.91201        1.07244       -0.36017
H         -2.85247        2.32152        0.33221
O         -3.19427        0.66128        1.55475
C         -0.53453        0.80168        0.41167
C          0.61101       -0.05867       -0.13534
N          1.15990        0.83548       -1.15182
C          0.90001        2.10439       -0.79200
N          0.00481        2.13513        0.20265
H         -0.71214        0.59212        1.47099
N          1.44878        3.16283       -1.34363
H          2.02390        0.61054       -1.63989
H         -0.52253        2.97464        0.42584
H          1.18051        4.09509       -1.04578
H          2.15027        3.05785       -2.06914
H          2.17520        1.17487        1.81710
H          1.63477       -1.41022        2.58167
H         -3.93234        1.10659        1.98556
