36
dc-STX_27_solv.log	Energy: -569641.5956518
C         -0.93966       -1.57742       -0.81511
N         -1.08018       -1.90780        0.59757
C         -1.10741       -0.90646        1.48756
C         -2.22699       -0.89985       -1.33115
H         -0.78799       -2.51564       -1.36311
N         -1.75717       -1.02375        2.63416
H         -2.33400       -1.83942        2.81161
H         -1.64068       -0.34215        3.37584
H         -1.56097       -2.76760        0.84568
N         -0.46746        0.23253        1.18649
C          0.24592        1.82632       -0.35847
C          0.02529        2.53111        0.97607
C         -0.77638        1.53140        1.80683
O          1.31360        2.38245       -1.04057
O         -0.91544        1.80018       -1.13763
H          1.00117        2.74048        1.43548
H         -0.50365        3.48270        0.83924
H         -1.85958        1.70785        1.73877
H         -0.47986        1.55061        2.86464
H         -3.00896       -1.67166       -1.38357
H         -2.56004       -0.14155       -0.60251
O         -2.07496       -0.33504       -2.60842
C          0.31417       -0.73174       -1.01044
C          0.48029        0.34972        0.08678
N          1.84533        0.13833        0.52442
C          2.38978       -0.94912       -0.03041
N          1.53478       -1.51065       -0.87924
H          0.28137       -0.26296       -2.00283
N          3.60253       -1.39148        0.23216
H          2.30005        0.69550        1.24076
H          1.77043       -2.28656       -1.48861
H          3.96180       -2.21422       -0.23964
H          4.18996       -0.91054        0.90447
H          1.38819        1.94670       -1.90198
H         -1.23852        2.70448       -1.25310
H         -1.67902        0.53917       -2.46690
