36
dc-STX_48_solv.log	Energy: -569639.5803988
C         -0.94405       -1.69804       -0.72466
N         -1.36218       -1.63529        0.67521
C         -1.51268       -0.42811        1.24553
C         -2.08326       -1.29816       -1.65507
H         -0.70844       -2.74615       -0.94712
N         -2.45290       -0.21630        2.15145
H         -3.15089       -0.93035        2.33183
H         -2.46358        0.62427        2.71793
H         -2.02380       -2.34861        0.97117
N         -0.65719        0.54253        0.90349
C          0.79234        1.66795       -0.55552
C          0.34904        2.63297        0.54435
C         -0.90148        1.97728        1.11378
O          2.11350        1.80072       -0.97708
O         -0.03039        1.74050       -1.67155
H          1.13432        2.70459        1.31228
H          0.15884        3.63677        0.14393
H         -1.81012        2.27096        0.56755
H         -1.03235        2.20937        2.17900
H         -2.88751       -2.04632       -1.54558
H         -1.71517       -1.35085       -2.69505
O         -2.54034       -0.01008       -1.32193
C          0.34672       -0.89190       -0.92588
C          0.51099        0.27033        0.09257
N          1.63221       -0.17616        0.90301
C          2.23401       -1.24152        0.36077
N          1.54198       -1.68474       -0.68300
H          0.36305       -0.49357       -1.94643
N          3.35136       -1.77109        0.81411
H          2.09871        0.43450        1.56794
H          1.74508       -2.55194       -1.16857
H          3.75199       -2.58862        0.36717
H          3.81717       -1.36945        1.62039
H          2.66549        2.12221       -0.25322
H         -0.05242        2.65800       -1.97584
H         -3.35514        0.15868       -1.80804
