36
dc-STX_36_solv.log	Energy: -569640.8258276
C          1.37490        1.24467       -0.59432
N          1.65901        1.06393        0.82671
C          1.34232       -0.11029        1.39491
C          2.29725        0.38734       -1.46562
H          1.57034        2.30010       -0.82782
N          2.04855       -0.59680        2.40249
H          2.90018       -0.13025        2.69657
H          1.71637       -1.38381        2.94871
H          2.50174        1.51535        1.17291
N          0.28923       -0.78091        0.91505
C         -1.12925       -1.45991       -0.79185
C         -1.19744       -2.50797        0.31658
C          0.00854       -2.19747        1.20100
O         -2.31888       -1.16354       -1.43509
O         -0.13773       -1.87495       -1.68546
H         -2.13850       -2.38000        0.86772
H         -1.16574       -3.52285       -0.09682
H          0.89006       -2.79751        0.93366
H         -0.21346       -2.34869        2.26679
H          2.05306        0.57954       -2.52488
H          2.11254       -0.68000       -1.27371
O          3.65169        0.63477       -1.17854
C         -0.10234        0.97576       -0.86460
C         -0.66819       -0.19235       -0.00702
N         -1.76786        0.44244        0.69721
C         -1.90640        1.72848        0.36289
N         -0.95197        2.09053       -0.48769
H         -0.23519        0.76463       -1.93505
N         -2.85261        2.52153        0.82185
H         -2.44888       -0.06932        1.24961
H         -0.86983        3.01838       -0.88887
H         -2.89828        3.48946        0.52258
H         -3.54163        2.17207        1.47851
H         -2.64891       -1.97221       -1.85049
H         -0.09107       -1.25373       -2.42592
H          3.85959        1.53398       -1.46186
