36
dc-STX_19_solv.log	Energy: -569640.9233946
C         -0.78043       -1.67168       -0.92728
N         -1.15573       -1.86558        0.47032
C         -1.34524       -0.78780        1.24491
C         -1.95263       -1.16925       -1.76181
H         -0.50943       -2.65361       -1.33499
N         -2.22209       -0.80292        2.23430
H         -2.84448       -1.59512        2.35429
H         -2.24150       -0.06329        2.92754
H         -1.71713       -2.68510        0.68563
N         -0.61241        0.30933        1.00929
C          0.45244        1.78497       -0.47297
C         -0.00402        2.57027        0.76012
C         -1.02954        1.66020        1.42424
O          1.66759        2.18361       -1.01309
O         -0.45138        1.87277       -1.52678
H          0.85274        2.73817        1.42966
H         -0.42239        3.54175        0.47277
H         -2.05031        1.84426        1.05626
H         -1.02203        1.76204        2.51771
H         -2.74711       -1.93174       -1.73856
H         -1.61752       -1.05058       -2.80548
O         -2.43158        0.05182       -1.23098
C          0.46887       -0.78891       -1.00522
C          0.50831        0.31591        0.08600
N          1.76252        0.04365        0.76321
C          2.40318       -1.00388        0.23738
N          1.68722       -1.53604       -0.74809
H          0.51544       -0.32153       -1.99798
N          3.57526       -1.44342        0.64768
H          2.14319        0.62824        1.50095
H          1.99147       -2.32302       -1.31083
H          4.00606       -2.24706        0.20359
H          4.05241       -0.98711        1.41735
H          2.25973        2.46960       -0.30639
H         -1.24673        1.31652       -1.37008
H         -3.24835        0.29784       -1.68379
