36
dc-STX_20_solv.log	Energy: -569642.6483403
C         -0.74161       -1.63148       -1.01346
N         -1.08850       -1.91188        0.37433
C         -1.29266       -0.88001        1.20416
C         -1.95304       -1.09796       -1.79581
H         -0.46118       -2.58306       -1.48331
N         -2.14552       -0.97253        2.21161
H         -2.74952       -1.78378        2.29359
H         -2.17218       -0.27261        2.94427
H         -1.62988       -2.75288        0.55308
N         -0.58985        0.24652        1.01439
C          0.38890        1.81513       -0.40356
C         -0.04474        2.53047        0.87119
C         -1.01306        1.55701        1.53402
O          1.58774        2.21364       -0.95752
O         -0.66434        1.93180       -1.33109
H          0.84144        2.69650        1.49847
H         -0.50610        3.49900        0.64550
H         -2.05641        1.73806        1.23596
H         -0.94440        1.59495        2.62967
H         -2.66290       -1.93094       -1.90426
H         -1.61401       -0.81693       -2.80835
O         -2.64408       -0.05198       -1.15996
C          0.50169       -0.74074       -1.04853
C          0.52027        0.33461        0.07652
N          1.79004        0.08053        0.72915
C          2.42944       -0.96711        0.20329
N          1.71899       -1.49030       -0.79090
H          0.56844       -0.26422       -2.03608
N          3.59719       -1.41309        0.61911
H          2.16525        0.65880        1.47406
H          2.01925       -2.28051       -1.35126
H          4.02845       -2.21506        0.17249
H          4.06701       -0.96794        1.39977
H          1.55369        3.16786       -1.11488
H         -0.32659        1.71609       -2.21285
H         -2.10251        0.75466       -1.21810
