36
dc-STX_21_solv.log	Energy: -569640.2946169
C         -0.93895       -1.60481       -0.76402
N         -1.05202       -1.90447        0.65564
C         -1.03268       -0.89707        1.54004
C         -2.23683       -0.94759       -1.27680
H         -0.78705       -2.55518       -1.29135
N         -1.62837       -1.01401        2.71626
H         -2.19709       -1.82948        2.91906
H         -1.48048       -0.33166        3.45162
H         -1.51986       -2.76227        0.93281
N         -0.40383        0.23825        1.20896
C          0.14152        1.81453       -0.40563
C          0.05032        2.54194        0.93594
C         -0.64265        1.53809        1.86114
O          1.13898        2.23935       -1.27067
O         -1.12573        1.88198       -0.98496
H          1.06278        2.78109        1.28787
H         -0.51587        3.47576        0.83704
H         -1.72655        1.70989        1.92251
H         -0.22343        1.55549        2.87691
H         -2.58737       -0.20476       -0.54641
H         -3.01061       -1.72786       -1.35729
O         -2.06978       -0.25502       -2.49180
C          0.30383       -0.75435       -1.00220
C          0.47328        0.36474        0.05310
N          1.86806        0.21957        0.42715
C          2.41107       -0.88951       -0.08306
N          1.53240       -1.51831       -0.85944
H          0.25867       -0.31911       -2.00906
N          3.64175       -1.29437        0.15338
H          2.32547        0.80118        1.12209
H          1.77490       -2.29455       -1.46608
H          3.99932       -2.13444       -0.28842
H          4.24852       -0.76214        0.76751
H          0.96598        3.16384       -1.49542
H         -1.20021        1.29788       -1.76263
H         -1.81444       -0.87647       -3.18598
