36
dc-STX_15_solv.log	Energy: -569640.6804876
C         -0.93900       -1.58174       -0.80655
N         -1.09909       -1.89276        0.60864
C         -1.14289       -0.87772        1.48214
C         -2.21626       -0.90214       -1.34564
H         -0.78672       -2.52773       -1.34069
N         -1.81008       -0.97736        2.62017
H         -2.38763       -1.79153        2.80229
H         -1.70268       -0.28553        3.35370
H         -1.57960       -2.75087        0.86291
N         -0.49976        0.25686        1.17084
C          0.27948        1.80394       -0.37977
C          0.02230        2.54320        0.93389
C         -0.81913        1.56907        1.75643
O          1.40071        2.21129       -1.08299
O         -0.86784        1.78840       -1.18573
H          0.98585        2.74444        1.42186
H         -0.48767        3.50092        0.76637
H         -1.89783        1.75301        1.64837
H         -0.55753        1.60692        2.82289
H         -2.55298       -0.13395       -0.62895
H         -3.00235       -1.66974       -1.39878
O         -2.04644       -0.35155       -2.62673
C          0.32104       -0.74432       -0.99711
C          0.48087        0.34198        0.09744
N          1.82668        0.10466        0.57768
C          2.38395       -0.96790        0.00773
N          1.53830       -1.52553       -0.85315
H          0.29793       -0.27871       -1.98993
N          3.59845       -1.40478        0.27145
H          2.29536        0.69400        1.25815
H          1.78314       -2.29514       -1.46680
H          3.96598       -2.21894       -0.20873
H          4.17770       -0.92990        0.95501
H          1.34125        3.16489       -1.23132
H         -1.24310        2.67797       -1.23400
H         -1.64426        0.52077       -2.48951
