49
M5_solv.log	Energy: -786350.1522529
C         -2.84686        0.97910       -1.10378
N         -3.14182        1.42578        0.25078
C         -2.26996        1.23552        1.24091
C         -1.85925        1.86749       -1.86509
H         -3.79209        1.02829       -1.65750
N         -2.30282        1.96835        2.33857
H         -2.91308        2.77792        2.39242
H         -1.76708        1.70802        3.15962
H         -3.86890        2.12296        0.38185
N         -1.34278        0.27347        1.08835
C          0.04924       -1.00875       -0.25438
C          0.92203       -0.40184        0.83365
C         -0.08193        0.20618        1.82999
O          0.39271       -1.60531       -1.23754
H          0.20784        1.21477        2.14807
H         -0.19398       -0.42419        2.72368
H         -2.06611        1.78091       -2.93823
H         -1.96130        2.91559       -1.55762
O         -0.50994        1.42437       -1.71205
C          0.33392        2.03553       -0.87127
O          0.01591        2.95714       -0.15709
C         -2.39728       -0.48400       -1.07611
C         -1.44436       -0.78695        0.11016
N         -2.00599       -2.01160        0.65206
C         -3.21203       -2.27457        0.12663
N         -3.50004       -1.39602       -0.82909
H         -1.89487       -0.73996       -2.02032
N         -3.98589       -3.26633        0.50788
H         -1.64501       -2.46518        1.48695
H         -4.29425       -1.48520       -1.45487
H         -4.87913       -3.42390        0.05356
H         -3.69344       -3.88478        1.25703
H          1.42502       -1.25841        1.30748
C          1.69115        1.38431       -0.91635
C          2.02757        0.59698        0.36852
H          2.43782        2.18268       -1.03116
H          2.11160        1.33273        1.18038
H          1.74668        0.72836       -1.79399
C          5.96492       -1.14574       -0.07446
C          4.85693       -1.78439       -0.63286
C          3.58297       -1.23557       -0.48983
C          3.39651       -0.04211        0.21837
C          4.51421        0.59254        0.77197
C          5.78987        0.04637        0.62781
H          6.96225       -1.57723       -0.18551
H          4.98390       -2.71856       -1.18484
H          2.72199       -1.73993       -0.93429
H          4.38232        1.52568        1.32649
H          6.64985        0.55362        1.07111
