49
M5_1_solv.log	Energy: -786353.0985479
C         -2.59059        1.27041        1.02361
N         -2.25205        0.33272        2.08257
C         -1.35620       -0.64519        1.93620
C         -1.61065        2.42815        0.91082
H         -3.56712        1.70594        1.27082
N         -0.81802       -1.21362        3.00468
H         -1.00068       -0.83192        3.92709
H         -0.32055       -2.09507        2.93757
H         -2.54655        0.55835        3.02827
N         -1.02297       -1.06885        0.70165
C         -0.42317       -0.10695       -1.33688
C          0.83156       -0.66912       -0.70356
C          0.28277       -1.64975        0.34154
O         -0.51475        0.55357       -2.33637
H          0.93341       -1.72937        1.21866
H          0.13512       -2.65688       -0.07118
H         -1.96214        3.14698        0.15905
H         -1.50305        2.93964        1.87705
O         -0.35065        1.88725        0.52746
C          0.46698        2.57742       -0.27659
O          0.22804        3.69846       -0.65472
C         -2.72888        0.52156       -0.29491
C         -1.65203       -0.55905       -0.50549
N         -2.40541       -1.58243       -1.20834
C         -3.72485       -1.41158       -1.01646
N         -3.95344       -0.25736       -0.38962
H         -2.66756        1.23558       -1.13107
N         -4.64772       -2.26346       -1.40029
H         -2.00055       -2.48095       -1.45882
H         -4.87197        0.17622       -0.36094
H         -5.63066       -2.05161       -1.26235
H         -4.38751       -3.13156       -1.85679
H          1.37330       -1.18392       -1.50957
C          1.70334        1.79400       -0.63744
C          1.78099        0.38459       -0.04371
H          2.55359        2.39148       -0.27350
H          1.47090        0.46927        1.00638
H          1.77637        1.79661       -1.73564
C          5.80919       -1.19401       -0.04579
C          5.24576       -0.71221       -1.22959
C          3.95064       -0.19893       -1.23052
C          3.19932       -0.15309       -0.04840
C          3.77263       -0.63668        1.13161
C          5.06893       -1.15597        1.13444
H          6.82403       -1.59803       -0.04575
H          5.81948       -0.73785       -2.15888
H          3.51678        0.16801       -2.16470
H          3.19631       -0.60498        2.06023
H          5.50071       -1.53072        2.06528
