46
M1_solv.log	Energy: -714615.7473901
C         -1.48305        1.36669       -1.37387
N         -1.82925        2.01666       -0.11822
C         -1.32584        1.58785        1.03855
C         -0.08997        1.70033       -1.90061
H         -2.18741        1.74001       -2.12782
N         -1.30153        2.36363        2.10720
H         -1.53992        3.34714        2.02767
H         -1.09172        1.98648        3.02530
H         -2.25442        2.93852       -0.14658
N         -0.83260        0.33590        1.09026
C          0.21649       -1.43436        0.00184
C          1.04206       -1.12362        1.23427
C          0.20009       -0.11195        2.03145
O          0.47477       -2.17699       -0.90624
H          0.79330        0.75145        2.35981
H         -0.25712       -0.57450        2.91732
H         -0.05234        1.44574       -2.96647
H          0.12295        2.76861       -1.77223
O          0.93861        0.91286       -1.29344
C          1.68606        1.42453       -0.30623
O          1.45141        2.49900        0.19848
C         -1.68767       -0.13930       -1.23691
C         -1.13401       -0.67864        0.10179
N         -2.18814       -1.58370        0.52516
C         -3.31102       -1.38457       -0.18344
N         -3.08836       -0.51565       -1.16623
H         -1.19175       -0.66156       -2.06866
N         -4.45912       -1.97465        0.06384
H         -2.17706       -2.05310        1.42698
H         -3.74232       -0.35043       -1.92512
H         -5.26583       -1.79347       -0.52428
H         -4.54969       -2.61424        0.84615
H          1.08193       -2.07662        1.78671
C          2.82948        0.52354        0.08194
C          2.51082       -0.70847        1.01181
C          3.38017       -1.85763        0.45125
C          4.41123       -1.18775       -0.45494
C          3.60737       -0.06583       -1.10439
H          3.50260        1.17755        0.65145
H          2.87268       -0.44459        2.01482
H          3.82704       -2.45076        1.26162
H          2.75692       -2.53502       -0.14907
H          4.85130       -1.88009       -1.18660
H          5.23400       -0.76226        0.14258
H          2.90705       -0.48937       -1.84040
H          4.22129        0.69125       -1.61267
