46
M1_1_solv.log	Energy: -714615.5173263
C         -1.28227        1.28714       -1.49649
N         -1.60022        2.08063       -0.31754
C         -1.18568        1.70700        0.89272
C          0.15663        1.42534       -1.98723
H         -1.91477        1.65800       -2.31295
N         -1.13374        2.56349        1.89627
H         -1.25713        3.55673        1.72652
H         -0.97662        2.24830        2.84751
H         -1.94079        3.02937       -0.43946
N         -0.81210        0.42478        1.07177
C          0.12493       -1.49312        0.13679
C          0.96722       -1.13543        1.34294
C          0.17951       -0.02318        2.05963
O          0.32206       -2.34186       -0.68983
H          0.81523        0.82257        2.35223
H         -0.31975       -0.40169        2.96229
H          0.22446        0.98883       -2.99070
H          0.44619        2.48214       -2.02720
O          1.09315        0.68854       -1.19151
C          1.79211        1.32692       -0.24061
O          1.58100        2.48134        0.05310
C         -1.64717       -0.16977       -1.23516
C         -1.16708       -0.63834        0.15464
N         -2.29673       -1.42660        0.61367
C         -3.38643       -1.19021       -0.13363
N         -3.07922       -0.40287       -1.16308
H         -1.19456       -0.81322       -2.00492
N         -4.57956       -1.67922        0.11980
H         -2.33632       -1.84393        1.53970
H         -3.69798       -0.25834       -1.95507
H         -5.35947       -1.47501       -0.49625
H         -4.73566       -2.25285        0.94193
H          0.94227       -2.04809        1.95978
C          2.88007        0.48008        0.36839
C          2.46742       -0.84188        1.11350
C          3.21027       -1.97929        0.37065
C          3.52361       -1.42527       -1.01646
C          3.88256        0.02846       -0.72635
H          3.36854        1.15443        1.08062
H          2.87065       -0.75577        2.13092
H          4.15279       -2.19049        0.89859
H          2.63280       -2.91271        0.34658
H          2.63170       -1.47772       -1.65949
H          4.33509       -1.96796       -1.52254
H          3.86302        0.67752       -1.61390
H          4.89737        0.08358       -0.30453
