46
M1_2_solv.log	Energy: -714612.7840080
C         -1.56365        1.31086       -1.38080
N         -1.95491        1.95672       -0.13602
C         -1.38760        1.60966        1.01945
C         -0.21331        1.76458       -1.93368
H         -2.31279        1.59569       -2.12923
N         -1.39311        2.42307        2.05957
H         -1.71034        3.38169        1.95528
H         -1.13316        2.09783        2.98463
H         -2.43431        2.85099       -0.18394
N         -0.80158        0.40171        1.09697
C          0.34217       -1.36103        0.09692
C          1.15961       -0.93218        1.30258
C          0.23956        0.04166        2.06185
O          0.62683       -2.15455       -0.75737
H          0.77006        0.94896        2.37699
H         -0.20373       -0.43072        2.95010
H         -0.19999        1.58176       -3.01482
H         -0.05454        2.83288       -1.74163
O          0.87126        0.99420       -1.41412
C          1.67776        1.48126       -0.46501
O          1.47457        2.53581        0.09294
C         -1.62536       -0.20679       -1.20931
C         -1.04721       -0.66626        0.15323
N         -2.05418       -1.60729        0.61169
C         -3.16893       -1.53474       -0.13088
N         -2.98864       -0.70293       -1.15254
H         -1.07332       -0.69929       -2.02312
N         -4.27359       -2.20131        0.12177
H         -2.01760       -2.05511        1.52344
H         -3.64357       -0.60640       -1.92201
H         -5.07637       -2.11548       -0.49273
H         -4.33396       -2.80538        0.93463
H          1.27643       -1.85256        1.89599
C          2.82685        0.55334       -0.15344
C          2.59128       -0.37447        1.07695
C          3.67754       -1.43937        0.87210
C          3.77519       -1.67768       -0.63880
C          3.30781       -0.36423       -1.30084
H          3.64575        1.22399        0.14218
H          2.80615        0.18761        1.99564
H          4.62572       -1.02094        1.24364
H          3.47686       -2.35438        1.44773
H          3.11422       -2.50253       -0.93692
H          4.79606       -1.95419       -0.93739
H          2.49842       -0.55836       -2.01491
H          4.11458        0.13281       -1.85718
