46
M1_5_solv.log	Energy: -714616.4568586
C         -1.49197        1.59053       -1.16222
N         -1.79335        2.12348        0.15849
C         -1.33587        1.52330        1.26008
C         -0.05526        1.86845       -1.59149
H         -2.14759        2.09147       -1.88510
N         -1.20576        2.19554        2.39093
H         -1.34919        3.20015        2.40828
H         -1.05570        1.71159        3.26972
H         -2.10049        3.08859        0.23574
N         -1.00527        0.21708        1.21942
C          0.04179       -1.36053       -0.15003
C          0.87957       -1.26699        1.10172
C          0.08004       -0.34783        2.04331
O          0.29771       -1.91776       -1.18415
H          0.69660        0.47054        2.43479
H         -0.33551       -0.90382        2.89371
H          0.16116        1.37302       -2.54723
H          0.10768        2.94981       -1.69900
O          0.80415        1.38099       -0.56483
C          2.03477        0.93355       -0.84401
O          2.47666        0.88124       -1.96685
C         -1.81768        0.10443       -1.17693
C         -1.30063       -0.62606        0.07874
N         -2.37778       -1.56556        0.33676
C         -3.49526       -1.19955       -0.31307
N         -3.24243       -0.17600       -1.12846
H         -1.36685       -0.36502       -2.06396
N         -4.66442       -1.78005       -0.16228
H         -2.38847       -2.17112        1.15330
H         -3.88008        0.11579       -1.86306
H         -5.46306       -1.47195       -0.70714
H         -4.77921       -2.54175        0.49803
H          0.87348       -2.29517        1.50178
C          2.74355        0.52912        0.42757
C          2.36302       -0.89086        0.92783
C          3.18851       -1.81836        0.02701
C          4.51220       -1.06495       -0.20903
C          4.25842        0.39646        0.22872
H          2.48460        1.28817        1.17916
H          2.78635       -0.94379        1.94405
H          3.32809       -2.80580        0.49016
H          2.66322       -1.97683       -0.92424
H          4.80772       -1.12060       -1.26603
H          5.33249       -1.50417        0.37617
H          4.64337        1.13288       -0.48939
H          4.74512        0.59653        1.19365
