42
M2_hydrate_2_solv.log	Energy: -689346.0555061
C          0.17269       -1.85605       -1.01997
N          0.05143       -2.26364        0.37679
C         -0.33974       -1.38746        1.30731
C         -1.15974       -1.71150       -1.75178
H          0.70931       -2.66416       -1.53190
N         -0.88277       -1.78227        2.44376
H         -1.18087       -2.74576        2.55847
H         -1.03461       -1.13114        3.20607
H         -0.06756       -3.25257        0.57707
N         -0.14901       -0.08599        1.03962
C          0.52408        1.86958       -0.12872
C         -0.84209        2.09702        0.58515
C         -0.80615        1.04377        1.69439
O          1.43963        2.69368        0.53171
H         -1.79549        0.74684        2.06330
H         -0.21166        1.39329        2.55226
H         -0.96514       -1.69124       -2.83075
H         -1.82543       -2.55182       -1.51809
O         -1.78962       -0.46831       -1.44916
C         -2.69316       -0.41135       -0.46493
O         -3.10930       -1.39330        0.10765
C          1.02492       -0.58117       -1.13066
C          0.89030        0.33886        0.12188
N          2.20241        0.20614        0.73336
C          3.06421       -0.43884       -0.06241
N          2.44761       -0.87307       -1.15662
H          0.73851       -0.03271       -2.03327
N          4.33992       -0.61329        0.21152
H          2.50001        0.81107        1.49320
H          2.87181       -1.50649       -1.82629
H          4.94063       -1.10623       -0.44038
H          4.73953       -0.22887        1.06092
H         -0.77259        3.09030        1.04281
C         -3.13065        0.99655       -0.17616
C         -2.07874        2.09100       -0.34932
H         -3.58271        0.99519        0.82459
H         -2.60236        3.04576       -0.20826
H         -3.95314        1.20115       -0.88202
H         -1.73927        2.08914       -1.39260
O          0.55470        2.10052       -1.49428
H          2.29446        2.62566        0.08111
H          0.35065        3.03411       -1.65127
