42
M2_hydrate_5_solv.log	Energy: -689345.4984910
C          0.11386       -1.90156       -0.92594
N         -0.00990       -2.24938        0.48835
C         -0.40578       -1.33434        1.37811
C         -1.22140       -1.80804       -1.66350
H          0.66173       -2.72700       -1.39590
N         -0.99209       -1.67372        2.51074
H         -1.32433       -2.62278        2.64906
H         -1.14283       -0.99109        3.24569
H         -0.14994       -3.22828        0.72183
N         -0.16694       -0.04895        1.07405
C          0.64244        1.84372       -0.08003
C         -0.78356        2.12863        0.47979
C         -0.85801        1.11664        1.62626
O          1.58842        2.50260        0.71504
H         -1.87912        0.84520        1.92015
H         -0.33403        1.49420        2.51673
H         -1.03400       -1.89818       -2.74018
H         -1.90214       -2.60800       -1.34564
O         -1.82085       -0.52824       -1.48485
C         -2.71491       -0.33371       -0.51041
O         -3.16976       -1.23214        0.16089
C          0.95139       -0.61848       -1.10152
C          0.89923        0.30196        0.15614
N          2.20987        0.07087        0.74662
C          3.03500       -0.52331       -0.12959
N          2.37093       -0.90161       -1.21646
H          0.60511       -0.07473       -1.98533
N          4.32220       -0.70314        0.07562
H          2.56622        0.74237        1.42175
H          2.75501       -1.52441       -1.91985
H          4.89608       -1.15715       -0.62681
H          4.75714       -0.36223        0.92628
H         -0.75936        3.13819        0.91121
C         -3.07413        1.11951       -0.37504
C         -1.92009        2.10142       -0.57487
H         -3.58391        1.24819        0.58887
H         -2.36234        3.10572       -0.60799
H         -3.82803        1.31615       -1.15534
H         -1.48612        1.93552       -1.56857
O          0.83724        2.11940       -1.42546
H          1.28878        3.40679        0.87660
H          0.65285        3.05560       -1.58630
