42
M2_hydrate_3_solv.log	Energy: -689343.4363945
C          0.49385       -1.89049       -1.01613
N          0.55973       -2.32593        0.37384
C          0.02017       -1.56129        1.32689
C         -0.90138       -2.01991       -1.64419
H          1.14939       -2.56645       -1.57738
N         -0.38298       -2.07047        2.47570
H         -0.42031       -3.07708        2.60156
H         -0.64407       -1.47596        3.25483
H          0.64988       -3.32078        0.55851
N         -0.09477       -0.25069        1.06272
C          0.07125        1.82513       -0.09828
C         -1.12385        1.85285        0.89975
C         -0.85138        0.69807        1.86746
O          0.93275        2.85745        0.27740
H         -1.77359        0.22862        2.23430
H         -0.25614        1.02876        2.73356
H         -0.78777       -2.24703       -2.71061
H         -1.47092       -2.82536       -1.16261
O         -1.62082       -0.79266       -1.60321
C         -2.50287       -0.52835       -0.63410
O         -2.81983       -1.32876        0.21718
C          1.06887       -0.46916       -1.14918
C          0.78354        0.40589        0.11358
N          2.11590        0.57515        0.67161
C          3.06680        0.11435       -0.15187
N          2.51940       -0.47353       -1.20889
H          0.65653        0.00915       -2.04263
N          4.35961        0.23249        0.06755
H          2.30376        1.27757        1.38144
H          3.04687       -0.99054       -1.90471
H          5.02815       -0.13925       -0.59829
H          4.69772        0.70584        0.89831
H         -1.02518        2.79206        1.45670
C         -3.01271        0.87969       -0.76420
C         -2.55268        1.87216        0.32434
H         -4.11023        0.82676       -0.72378
H         -3.21862        1.77903        1.19463
H         -2.72834        1.24634       -1.75542
H         -2.73940        2.87569       -0.08575
O         -0.26611        1.93228       -1.43887
H          1.67600        2.87653       -0.34421
H         -0.73748        2.76684       -1.57070
