42
M2_hydrate_10_solv.log	Energy: -689343.6933973
C          0.24863       -1.79616       -1.10482
N          0.06983       -2.26218        0.26337
C         -0.22580       -1.41112        1.25053
C         -1.05590       -1.52004       -1.84713
H          0.73401       -2.60898       -1.66031
N         -0.74289       -1.84371        2.38843
H         -1.06331       -2.80320        2.46942
H         -0.81036       -1.23779        3.19869
H         -0.07766       -3.25363        0.42696
N          0.00469       -0.10469        1.04750
C          0.30238        1.81863       -0.34692
C         -0.85937        2.04240        0.68713
C         -0.58838        1.00942        1.78492
O          1.27482        2.81056       -0.26079
H         -1.49117        0.68876        2.31715
H          0.12654        1.39261        2.52909
H         -0.83111       -1.29728       -2.89683
H         -1.72177       -2.38883       -1.79255
O         -1.72127       -0.36047       -1.33282
C         -2.66921       -0.51426       -0.39038
O         -3.08487       -1.59958       -0.06331
C          1.20318       -0.60083       -1.11078
C          0.93941        0.39467        0.05297
N          2.26510        0.54165        0.62452
C          3.15995       -0.26674        0.05427
N          2.58036       -1.00405       -0.89027
H          1.11501       -0.07215       -2.06906
N          4.43345       -0.32320        0.38569
H          2.49790        1.22952        1.33330
H          3.09681       -1.57952       -1.54725
H          5.06241       -0.95474       -0.09797
H          4.79480        0.26121        1.13140
H         -0.70386        3.04861        1.09575
C         -3.15297        0.77841        0.19919
C         -2.29210        2.03906        0.10629
H         -3.41840        0.54195        1.23924
H         -2.85616        2.80869        0.65075
H         -4.11355        0.98284       -0.30278
H         -2.25617        2.39696       -0.93183
O         -0.08492        1.85072       -1.67694
H          1.32526        3.14721        0.64255
H         -0.81207        1.22054       -1.81104
