42
M2_hydrate_7_solv.log	Energy: -689347.1564024
C          0.49414       -1.84819       -1.01795
N          0.66046       -2.32311        0.34690
C          0.30648       -1.54010        1.37286
C         -0.96829       -1.88219       -1.46219
H          1.03804       -2.53409       -1.67935
N         -0.00914       -2.07081        2.54431
H         -0.11554       -3.07570        2.63617
H         -0.07966       -1.49861        3.37824
H          0.70885       -3.32373        0.51248
N          0.28225       -0.21099        1.20148
C         -0.10454        1.67081       -0.21323
C         -1.03878        1.75213        1.02896
C         -0.49708        0.71427        2.02222
O          0.58350        2.87870       -0.30048
H         -1.29522        0.17214        2.54502
H          0.14710        1.18423        2.77960
H         -1.09668       -1.36345       -2.42145
H         -1.29438       -2.92564       -1.57431
O         -1.75051       -1.27228       -0.44751
C         -2.74317       -0.42940       -0.74218
O         -3.19728       -0.29696       -1.85498
C          1.15992       -0.47952       -1.14491
C          0.88327        0.46081        0.06186
N          2.21616        0.93769        0.37942
C          3.16258        0.29596       -0.31089
N          2.61033       -0.58731       -1.13904
H          0.82082        0.00236       -2.06897
N          4.45581        0.51192       -0.18402
H          2.39974        1.66795        1.05980
H          3.12858       -1.06748       -1.86743
H          5.11876        0.00554       -0.76087
H          4.79859        1.19436        0.48300
H         -0.87509        2.75167        1.44837
C         -3.20574        0.29295        0.49332
C         -2.54751        1.66104        0.74014
H         -3.04901       -0.36685        1.35782
H         -3.05710        2.08323        1.61858
H         -4.28604        0.45950        0.38625
H         -2.79321        2.33901       -0.09196
O         -0.75323        1.38525       -1.40867
H          1.18654        2.83203       -1.05689
H         -1.38355        2.09264       -1.60241
