55
M6_hydrate_23_solv.log	Energy: -952636.7940272
C         -2.66887        0.57847       -1.70883
N         -3.54041        1.05429       -0.64213
C         -3.14301        1.03023        0.63377
C         -1.56534        1.55665       -2.09852
H         -3.29375        0.46312       -2.60369
N         -3.72193        1.79582        1.54312
H         -4.36091        2.53064        1.25745
H         -3.53980        1.66478        2.53177
H         -4.32199        1.65479       -0.88665
N         -2.13324        0.21152        0.96266
C         -0.21250       -1.13150        0.51857
C          0.09117       -0.06626        1.63698
C         -1.30380        0.29436        2.16076
O          0.00747       -2.42082        1.02283
H         -1.36127        1.29306        2.60837
H         -1.64703       -0.43467        2.91089
H         -1.05344        1.17772       -2.99094
H         -1.98647        2.54646       -2.31214
O         -0.57051        1.64598       -1.08024
C         -0.65509        2.61727       -0.17345
O         -1.45859        3.52066       -0.24456
C         -2.12325       -0.80305       -1.34502
C         -1.76018       -0.94330        0.16302
N         -2.53706       -2.10486        0.55546
C         -3.26747       -2.59370       -0.45071
N         -3.11726       -1.84438       -1.53654
H         -1.23854       -1.01145       -1.95669
N         -4.02809       -3.66618       -0.36710
H         -2.36066       -2.61779        1.41279
H         -3.54369       -2.05153       -2.43310
H         -4.55015       -3.98814       -1.17467
H         -4.11215       -4.16781        0.51008
H          0.61944       -0.61609        2.42507
C          0.33332        2.49901        0.95247
C          1.00303        1.17188        1.34888
H         -0.19707        2.91156        1.82108
H          1.37543        1.41208        2.35711
H          1.12186        3.23928        0.73976
C          3.11470       -0.17378        1.12819
C          2.26165        0.80847        0.56820
C          2.60185        1.39612       -0.65094
C          3.76299        1.03525       -1.35987
H          2.89046       -0.65087        2.08377
H          1.94993        2.14703       -1.09675
H          4.01118        1.49779       -2.31581
O          0.49007       -1.03692       -0.66296
H         -0.07730       -2.42901        1.98490
H          1.43676       -1.07623       -0.46723
C          4.56616        0.06865       -0.79818
C          4.24509       -0.52059        0.42257
O          5.19321       -1.44996        0.73515
C          6.23744       -1.28515       -0.21812
O          5.71937       -0.48633       -1.27497
H          7.09011       -0.76755        0.25461
H          6.53955       -2.26576       -0.60862
