55
M6_hydrate_6_solv.log	Energy: -952639.3081752
C          3.49102       -0.58667       -1.32651
N          4.04967       -0.96668       -0.03458
C          3.23559       -1.10531        1.01476
C          2.71238       -1.71360       -2.02219
H          4.34658       -0.35712       -1.97173
N          3.55088       -1.87171        2.04188
H          4.36254       -2.47940        1.99239
H          3.02209       -1.83821        2.90693
H          4.93349       -1.46750       -0.02230
N          2.07539       -0.43168        0.97583
C          0.35022        1.02846        0.20964
C         -0.24120       -0.07466        1.14182
C          0.96972       -0.62544        1.90083
O          0.05253        2.25121        0.81279
H          0.86738       -1.68985        2.14645
H          1.14445       -0.06430        2.83264
H          2.84234       -1.61557       -3.10618
H          3.08047       -2.69703       -1.70217
O          1.30999       -1.60061       -1.80724
C          0.68456       -2.29656       -0.85358
O          1.22601       -3.13439       -0.16867
C          2.65803        0.70051       -1.18284
C          1.93563        0.78400        0.19989
N          2.62945        1.89078        0.83971
C          3.44671        2.52589       -0.01174
N          3.48866        1.89082       -1.17688
H          1.92778        0.75478       -1.99594
N          4.11074        3.62478        0.27825
H          2.24661        2.34330        1.66510
H          4.11637        2.13896       -1.93441
H          4.72303        4.04925       -0.40991
H          4.02842        4.04676        1.19674
H         -0.86833        0.45719        1.86532
C         -0.75687       -1.87776       -0.77162
C         -1.16199       -1.18406        0.54499
H         -1.36474       -2.79009       -0.86372
H         -1.14712       -1.96452        1.31954
H         -0.95931       -1.24248       -1.63726
C         -3.20161       -0.20809       -0.69605
C         -2.61002       -0.70075        0.48667
C         -3.35505       -0.71660        1.67107
C         -4.67855       -0.25220        1.73827
H         -2.67856       -0.18215       -1.65272
H         -2.89102       -1.10610        2.58066
H         -5.24565       -0.27147        2.66960
O         -0.08443        1.01867       -1.10610
H          0.37894        2.96113        0.23944
H         -1.02872        1.22948       -1.11316
C         -5.22867        0.22534        0.56759
C         -4.50279        0.24378       -0.61835
O         -5.27394        0.78529       -1.60731
C         -6.58650        0.88368       -1.06667
O         -6.46837        0.75553        0.34489
H         -7.01721        1.86216       -1.31540
H         -7.21134        0.06338       -1.46209
