55
M6_hydrate_24_solv.log	Energy: -952640.7959500
C         -3.08331        1.03414        1.46883
N         -2.53786        0.02620        2.36505
C         -1.56099       -0.81076        2.00034
C         -2.26413        2.31525        1.43627
H         -4.06846        1.31469        1.86336
N         -0.80879       -1.39296        2.92405
H         -0.89487       -1.11877        3.89687
H         -0.22046       -2.18594        2.69662
H         -2.68843        0.15543        3.36148
N         -1.36578       -1.07460        0.70236
C         -1.25090       -0.24278       -1.51668
C          0.17526       -0.48986       -0.93293
C         -0.12669       -1.57672        0.10309
O         -1.47360       -1.16135       -2.54797
H          0.66508       -1.68717        0.85228
H         -0.30884       -2.55772       -0.35836
H         -2.77153        3.06939        0.82052
H         -2.13659        2.70952        2.45353
O         -0.98380        2.01718        0.90483
C         -0.49833        2.69886       -0.13910
O         -1.00516        3.70829       -0.56938
C         -3.30658        0.43804        0.07765
C         -2.26598       -0.63815       -0.35626
N         -3.12281       -1.73245       -0.77210
C         -4.41637       -1.47586       -0.56834
N         -4.56475       -0.28850        0.00975
H         -3.30516        1.24918       -0.66093
N         -5.39839       -2.29348       -0.88787
H         -2.78252       -2.48778       -1.35729
H         -5.46473        0.15618        0.15648
H         -6.36311       -2.02129       -0.73364
H         -5.19883       -3.19321       -1.31070
H          0.77486       -0.89733       -1.75753
C          0.78277        2.09202       -0.64167
C          1.01135        0.62987       -0.23800
H          1.58609        2.69626       -0.18746
H          0.77899        0.58842        0.83318
H          0.84581        2.27107       -1.72352
C          3.20365       -0.11779        0.78146
C          2.48578        0.27697       -0.36530
C          3.13243        0.34697       -1.60342
C          4.49428        0.03814       -1.75234
H          2.72082       -0.18517        1.75819
H          2.56578        0.65116       -2.48713
H          4.99203        0.09253       -2.72126
O         -1.53592        1.04571       -1.93825
H         -0.73145       -1.11970       -3.16552
H         -0.94467        1.27213       -2.66987
C          5.17472       -0.34001       -0.61325
C          4.54155       -0.41675        0.62306
O          5.43857       -0.84785        1.55974
C          6.71193       -0.79507        0.92730
O          6.48027       -0.72261       -0.47347
H          7.25269        0.10864        1.26071
H          7.28042       -1.70384        1.16308
