55
M6_hydrate_31_solv.log	Energy: -952641.1753924
C          3.32328       -0.86113       -1.19049
N          3.98866       -0.98390        0.09628
C          3.30282       -0.74378        1.21783
C          2.37600       -2.02857       -1.46267
H          4.09386       -0.89369       -1.97125
N          3.67966       -1.28311        2.36720
H          4.42626       -1.96974        2.38758
H          3.30577       -0.94810        3.24826
H          4.83176       -1.54564        0.16201
N          2.22051        0.04673        1.16664
C          0.31546        0.80792       -0.05930
C         -0.14911        0.17673        1.28506
C          1.11980       -0.04450        2.12025
O         -0.15750        2.10607       -0.22994
H          1.13543       -1.02551        2.61160
H          1.22106        0.72470        2.89909
H          1.78916       -1.84387       -2.37234
H          2.95691       -2.95221       -1.59534
O          1.52348       -2.18109       -0.33628
C          0.24961       -2.54592       -0.49023
O         -0.18536       -2.98199       -1.53194
C          2.65795        0.51135       -1.26503
C          1.89724        0.89975        0.03331
N          2.35944        2.25596        0.25579
C          3.34672        2.59521       -0.57439
N          3.62998        1.58405       -1.39523
H          1.97512        0.52304       -2.12323
N          3.95580        3.76326       -0.57548
H          1.93423        2.88651        0.92677
H          4.22656        1.68538       -2.20981
H          4.68057        3.96252       -1.25656
H          3.69125        4.47941        0.09212
H         -0.72037        0.96843        1.78201
C         -0.50422       -2.41181        0.80949
C         -1.10407       -1.04316        1.21624
H          0.19496       -2.72126        1.59875
H         -1.36820       -1.20642        2.27406
H         -1.31788       -3.14875        0.79454
C         -3.18985        0.36166        1.11392
C         -2.42298       -0.67836        0.53717
C         -2.90986       -1.33769       -0.59267
C         -4.13839       -0.99965       -1.19084
H         -2.86031        0.89302        2.00866
H         -2.32433       -2.13464       -1.05067
H         -4.50025       -1.52130       -2.07770
O         -0.08042        0.00736       -1.12225
H         -1.12325        2.07408       -0.16694
H         -0.11990        0.55000       -1.92180
C         -4.85803        0.02090       -0.61159
C         -4.38830        0.68474        0.51851
O         -5.28147        1.65847        0.86902
C         -6.43931        1.42519        0.07613
O         -6.05039        0.57225       -0.99274
H         -7.21096        0.92477        0.68785
H         -6.81112        2.37663       -0.32524
