55
M6_hydrate_1_solv.log	Energy: -952638.9386412
C         -2.79450        0.83632       -1.57255
N         -3.51290        1.32458       -0.40683
C         -3.06776        1.11017        0.83595
C         -1.60383        1.71394       -1.92948
H         -3.48342        0.87376       -2.42565
N         -3.47989        1.88297        1.83097
H         -4.04194        2.70419        1.63294
H         -3.33731        1.61671        2.79853
H         -4.21685        2.04433       -0.53946
N         -2.20382        0.11056        1.05655
C         -0.31605       -1.15443        0.27456
C          0.06806       -0.29817        1.52359
C         -1.27996        0.00661        2.18406
O         -0.07400       -2.47705        0.62775
H         -1.27138        0.92336        2.78366
H         -1.59272       -0.81838        2.84085
H         -1.13450        1.36474       -2.85845
H         -1.90615        2.76183       -2.04352
O         -0.65471        1.59187       -0.87050
C         -0.19529        2.66912       -0.22056
O         -0.34246        3.79347       -0.63160
C         -2.40581       -0.62433       -1.35121
C         -1.90088       -0.92951        0.08499
N         -2.63229       -2.14411        0.39544
C         -3.58254       -2.40969       -0.50435
N         -3.55070       -1.51012       -1.48609
H         -1.62256       -0.90472       -2.06915
N         -4.42261       -3.42047       -0.42701
H         -2.48805       -2.67696        1.24689
H         -4.04655       -1.63017       -2.36348
H         -5.10373       -3.57804       -1.16196
H         -4.39108       -4.05239        0.36559
H          0.60148       -1.00325        2.17005
C          0.42275        2.32173        1.10356
C          1.01737        0.93696        1.40552
H         -0.38710        2.53323        1.82209
H          1.33818        1.06081        2.45267
H          1.18316        3.08849        1.30483
C          3.07105       -0.48463        1.06239
C          2.30180        0.62599        0.64164
C          2.75300        1.40316       -0.42600
C          3.94560        1.11344       -1.11827
H          2.76505       -1.11318        1.89984
H          2.18901        2.27521       -0.75906
H          4.28038        1.72884       -1.95396
O          0.38644       -0.91471       -0.89766
H         -0.35417       -3.04701       -0.10307
H          0.36905        0.03515       -1.08997
C          4.66654        0.02300       -0.69112
C          4.23432       -0.75530        0.38138
O          5.12245       -1.77341        0.58034
C          6.24772       -1.47437       -0.23706
O          5.82999       -0.49863       -1.18346
H          7.05903       -1.06135        0.38810
H          6.57644       -2.38141       -0.76048
