55
M6_hydrate_27_solv.log	Energy: -952637.2873123
C         -2.70113        0.67893       -1.66434
N         -3.49851        1.19914       -0.56259
C         -3.07605        1.11016        0.70361
C         -1.54314        1.58693       -2.06168
H         -3.35895        0.62248       -2.54088
N         -3.56357        1.91513        1.63462
H         -4.13793        2.70859        1.36976
H         -3.37779        1.75473        2.61809
H         -4.22156        1.88121       -0.77195
N         -2.14741        0.19209        1.00253
C         -0.28094       -1.18139        0.43997
C          0.09156       -0.17324        1.57890
C         -1.27463        0.18524        2.17263
O         -0.18998       -2.49158        0.91983
H         -1.28947        1.15258        2.68519
H         -1.61271       -0.58052        2.88648
H         -1.05240        1.18105       -2.95438
H         -1.90301        2.60137       -2.27088
O         -0.56024        1.60992       -1.03034
C         -0.53345        2.62958       -0.17456
O         -1.19822        3.63169       -0.31481
C         -2.24279       -0.74234       -1.33913
C         -1.83774       -0.94485        0.14944
N         -2.64078       -2.09410        0.52859
C         -3.43875       -2.50434       -0.46037
N         -3.31080       -1.70905       -1.51781
H         -1.39606       -0.99207       -1.99044
N         -4.24107       -3.54660       -0.38879
H         -2.43215       -2.65318        1.34870
H         -3.76735       -1.87487       -2.40823
H         -4.80640       -3.81349       -1.18733
H         -4.30430       -4.08713        0.46686
H          0.62476       -0.78444        2.31660
C          0.37733        2.41728        1.00159
C          1.01853        1.06266        1.34374
H         -0.21257        2.76902        1.86012
H          1.37901        1.25422        2.36739
H          1.17627        3.16968        0.90384
C          3.11612       -0.29715        1.08768
C          2.28639        0.72417        0.56879
C          2.66846        1.38957       -0.59553
C          3.85202        1.07145       -1.28987
H          2.85900       -0.83635        2.00125
H          2.03996        2.17836       -1.00925
H          4.13332        1.59675       -2.20338
O          0.50289       -1.03524       -0.68852
H          0.73300       -2.65312        1.16299
H          0.45162       -1.85929       -1.19365
C          4.63335        0.06680       -0.76704
C          4.26864       -0.59991        0.40062
O          5.20504       -1.55562        0.68037
C          6.29103       -1.30497       -0.20352
O          5.80236       -0.46413       -1.24038
H          7.09999       -0.78816        0.34286
H          6.64692       -2.25147       -0.63033
