55
M6_hydrate_25_solv.log	Energy: -952640.1959066
C         -3.28389        1.52358        0.53389
N         -2.89374        1.11025        1.87257
C         -1.89531        0.25159        2.10387
C         -2.44250        2.66849       -0.00936
H         -4.31015        1.90692        0.60139
N         -1.29801        0.24130        3.28865
H         -1.53488        0.94786        3.97721
H         -0.71358       -0.53449        3.57758
H         -3.18158        1.69978        2.64812
N         -1.52185       -0.60511        1.14493
C         -1.02978       -0.90699       -1.16803
C          0.27396       -0.77911       -0.31888
C         -0.21880       -1.26749        1.04733
O         -1.08013       -2.18148       -1.74662
H          0.44508       -0.97721        1.86864
H         -0.35404       -2.35846        1.08187
H         -2.82529        2.98545       -0.98853
H         -2.47354        3.52228        0.68139
O         -1.10132        2.22308       -0.11904
C         -0.42247        2.36508       -1.26240
O         -0.81228        3.03642       -2.18886
C         -3.31492        0.31303       -0.39790
C         -2.23118       -0.76862       -0.11831
N         -3.02124       -1.98420       -0.09904
C         -4.33047       -1.74432       -0.20056
N         -4.55499       -0.43494       -0.25061
H         -3.21009        0.65767       -1.43414
N         -5.25884       -2.67795       -0.23722
H         -2.60412       -2.89440       -0.26330
H         -5.46496       -0.03021       -0.44464
H         -6.23527       -2.42564       -0.34439
H         -5.00352       -3.65636       -0.16010
H          0.99592       -1.48162       -0.75766
C          0.90056        1.65061       -1.20950
C          1.01344        0.58054       -0.11725
H          1.64674        2.43445       -0.99668
H          0.60314        1.04532        0.78707
H          1.12712        1.28175       -2.21921
C          3.33055       -0.17542       -0.83206
C          2.47160        0.28392        0.19209
C          2.96222        0.45738        1.48669
C          4.30373        0.19028        1.82150
H          2.97523       -0.32935       -1.85296
H          2.28510        0.81522        2.26627
H          4.67826        0.32381        2.83704
O         -1.23058        0.02156       -2.16949
H         -0.34879       -2.72784       -1.43408
H         -0.56210       -0.12406       -2.85362
C          5.12051       -0.24873        0.80393
C          4.64087       -0.42653       -0.49383
O          5.65223       -0.89616       -1.28246
C          6.83906       -0.77322       -0.50820
O          6.43897       -0.60591        0.84594
H          7.44159       -1.68527       -0.60681
H          7.40632        0.11461       -0.83935
