55
M6_hydrate_9_solv.log	Energy: -952639.2442446
C          3.51538       -0.60839       -1.27801
N          4.00615       -1.06052        0.01736
C          3.16317       -1.18182        1.04467
C          2.73193       -1.67383       -2.05891
H          4.40561       -0.38317       -1.87637
N          3.42660       -1.97442        2.06691
H          4.21424       -2.61339        2.02440
H          2.88086       -1.93155        2.92095
H          4.87231       -1.59063        0.04405
N          2.03242       -0.46101        0.99154
C          0.38052        1.05439        0.19172
C         -0.27892       -0.05838        1.07306
C          0.89505       -0.61967        1.88364
O          0.20541        2.31401        0.76280
H          0.76328       -1.67748        2.14213
H          1.05220       -0.04727        2.81178
H          2.90257       -1.52009       -3.13069
H          3.06370       -2.68274       -1.78154
O          1.32518       -1.53455       -1.88737
C          0.66222       -2.24289       -0.97066
O          1.17328       -3.10374       -0.28974
C          2.72105        0.70113       -1.11814
C          1.96107        0.77707        0.24409
N          2.67452        1.84150        0.93330
C          3.52519        2.47601        0.11539
N          3.58481        1.86484       -1.06187
H          2.01715        0.79346       -1.95197
N          4.20517        3.55463        0.44311
H          2.25068        2.31217        1.72733
H          4.24841        2.10488       -1.79110
H          4.84213        3.97911       -0.22226
H          4.11255        3.95894        1.36844
H         -0.93376        0.47320        1.77430
C         -0.77456       -1.80757       -0.89906
C         -1.17560       -1.17034        0.45184
H         -1.38923       -2.71114       -1.02384
H         -1.12803       -1.98454        1.18894
H         -0.98579       -1.12758       -1.72932
C         -3.04473        0.47037       -0.15830
C         -2.64327       -0.77098        0.38202
C         -3.60949       -1.67254        0.83623
C         -4.98665       -1.39275        0.77788
H         -2.31809        1.19309       -0.52896
H         -3.28703       -2.63050        1.25182
H         -5.73087       -2.10163        1.14270
O         -0.11712        1.03622       -1.10080
H         -0.74539        2.47363        0.84873
H          0.08567        1.88701       -1.51676
C         -5.34966       -0.17506        0.24519
C         -4.39614        0.73241       -0.20925
O         -5.02911        1.86134       -0.65046
C         -6.41250        1.53493       -0.69762
O         -6.59465        0.37118        0.09874
H         -7.00295        2.36287       -0.28478
H         -6.70615        1.32007       -1.74060
