55
M6_hydrate_17_solv.log	Energy: -952642.2204592
C         -3.28537        1.48091        0.60513
N         -2.89336        0.98685        1.91600
C         -1.89807        0.11231        2.09381
C         -2.44667        2.66024        0.13669
H         -4.31249        1.85718        0.69607
N         -1.29931        0.02620        3.27441
H         -1.53330        0.68767        4.00729
H         -0.71760       -0.76883        3.51283
H         -3.17841        1.53171        2.72450
N         -1.52754       -0.68777        1.08476
C         -1.01947       -0.80633       -1.24010
C          0.27665       -0.74747       -0.38303
C         -0.21933       -1.33441        0.94100
O         -0.97337       -2.05267       -1.86825
H          0.43900       -1.10429        1.78552
H         -0.35091       -2.42469        0.89406
H         -2.82213        3.03164       -0.82604
H         -2.49223        3.47184        0.87592
O         -1.10098        2.23183        0.01554
C         -0.40890        2.45462       -1.10741
O         -0.78863        3.19124       -1.98731
C         -3.32081        0.32645       -0.39625
C         -2.22607       -0.75943       -0.19116
N         -3.00839       -1.97970       -0.27516
C         -4.32386       -1.74495       -0.26635
N         -4.55370       -0.43610       -0.26865
H         -3.23204        0.72851       -1.41328
N         -5.24915       -2.68165       -0.26259
H         -2.59718       -2.90508       -0.20539
H         -5.46949       -0.02799       -0.42534
H         -6.23162       -2.43021       -0.28141
H         -4.98602       -3.66100       -0.24437
H          0.97881       -1.43098       -0.87529
C          0.91405        1.73860       -1.09054
C          1.01669        0.59055       -0.07882
H          1.65583        2.50550       -0.81075
H          0.60113        0.99001        0.85423
H          1.15550        1.44677       -2.12179
C          3.32918       -0.14050       -0.83005
C          2.47288        0.27111        0.21625
C          2.96546        0.37950        1.51713
C          4.30643        0.09115        1.83671
H          2.97165       -0.24354       -1.85651
H          2.29040        0.70020        2.31445
H          4.68250        0.17294        2.85715
O         -1.22153        0.19535       -2.17414
H         -1.78802       -2.16972       -2.37870
H         -0.54106        0.11363       -2.85767
C          5.12040       -0.30100        0.79796
C          4.63877       -0.41319       -0.50629
O          5.64695       -0.84881       -1.31821
C          6.83501       -0.77505       -0.53941
O          6.43709       -0.66666        0.82134
H          7.42757       -1.68807       -0.68098
H          7.41200        0.12087       -0.82932
