55
M6_hydrate_28_solv.log	Energy: -952640.6006188
C          2.98352       -1.02856       -1.47538
N          3.80586       -1.30116       -0.30728
C          3.31944       -1.05635        0.91334
C          1.87986       -2.06926       -1.65103
H          3.62675       -1.09940       -2.36102
N          3.79123       -1.70374        1.96766
H          4.44111       -2.47277        1.84241
H          3.59682       -1.38601        2.91064
H          4.57468       -1.95879       -0.39172
N          2.34291       -0.14850        1.05680
C          0.40090        0.93885        0.17007
C          0.05939        0.29140        1.55032
C          1.39406       -0.15286        2.16560
O         -0.00661        2.27076        0.09381
H          1.34303       -1.15573        2.60773
H          1.71703        0.54622        2.95035
H          1.19500       -1.77495       -2.45695
H          2.32667       -3.04195       -1.90024
O          1.18275       -2.19215       -0.41786
C         -0.14159       -2.34440       -0.39822
O         -0.78343       -2.62614       -1.38512
C          2.48141        0.41157       -1.39325
C          1.97721        0.80442        0.02289
N          2.63783        2.07800        0.23153
C          3.53406        2.34484       -0.72042
N          3.54943        1.37071       -1.62925
H          1.67488        0.55612       -2.12114
N          4.29307        3.42116       -0.74834
H          2.47739        2.66784        1.04167
H          4.01363        1.45917       -2.52722
H          4.94072        3.57251       -1.51387
H          4.22734        4.11298       -0.00999
H         -0.33025        1.09831        2.18166
C         -0.68204       -2.19776        1.00406
C         -1.04898       -0.79472        1.54880
H          0.07451       -2.63034        1.67305
H         -1.21163       -0.99056        2.62070
H         -1.57581       -2.83162        1.07595
C         -3.05304       -0.75592       -0.07288
C         -2.37414       -0.22077        1.04353
C         -2.93220        0.86831        1.72522
C         -4.14252        1.46328        1.33764
H         -2.66196       -1.59765       -0.64423
H         -2.42212        1.27020        2.60363
H         -4.56121        2.31172        1.88001
O         -0.15221        0.29065       -0.92210
H         -0.00028        2.67423        0.97066
H         -1.11475        0.39646       -0.88989
C         -4.77963        0.92186        0.24085
C         -4.24363       -0.16340       -0.44158
O         -5.05697       -0.47776       -1.49302
C         -6.24303        0.28592       -1.30786
O         -5.93864        1.31039       -0.36884
H         -6.54651        0.73593       -2.26186
H         -7.04063       -0.36197       -0.90328
