55
M6_hydrate_20_solv.log	Energy: -952641.7658286
C         -3.28976        1.50205        0.55330
N         -2.90022        1.06529        1.88447
C         -1.89964        0.20478        2.10015
C         -2.45024        2.65794        0.03088
H         -4.31709        1.88154        0.62587
N         -1.30353        0.17164        3.28494
H         -1.54052        0.86452        3.98720
H         -0.71727       -0.60856        3.55803
H         -3.19123        1.63922        2.67038
N         -1.52300       -0.63212        1.12529
C         -1.02392       -0.86570       -1.19152
C          0.27454       -0.75022       -0.34179
C         -0.21412       -1.28036        1.00822
O         -1.10681       -2.14834       -1.73842
H          0.44696       -1.00941        1.83832
H         -0.34242       -2.37205        1.01019
H         -2.82916        2.98676       -0.94604
H         -2.49011        3.50227        0.73291
O         -1.10741        2.21828       -0.07728
C         -0.40911        2.41418       -1.20122
O         -0.78804        3.12528       -2.10236
C         -3.31925        0.30658       -0.39895
C         -2.23050       -0.77558       -0.14106
N         -3.01832       -1.99343       -0.14189
C         -4.32825       -1.75667       -0.21926
N         -4.55554       -0.44672       -0.26161
H         -3.22199        0.67807       -1.42789
N         -5.25687       -2.69066       -0.24488
H         -2.59913       -2.91137       -0.24147
H         -5.46816       -0.04105       -0.44005
H         -6.23537       -2.43766       -0.32877
H         -4.99998       -3.66926       -0.17606
H          0.98260       -1.45243       -0.80056
C          0.91551        1.70216       -1.15914
C          1.01934        0.59945       -0.09905
H          1.65987        2.47993       -0.91975
H          0.60931        1.03809        0.81873
H          1.14047        1.35599       -2.17592
C          3.32869       -0.16470       -0.82863
C          2.47567        0.28726        0.20371
C          2.97132        0.44037        1.49900
C          4.31180        0.15906        1.82649
H          2.96902       -0.30299       -1.85022
H          2.29889        0.79228        2.28532
H          4.69009        0.27647        2.84263
O         -1.08091        0.08825       -2.18876
H         -0.33245       -2.28069       -2.30306
H         -1.78633       -0.14636       -2.80875
C          5.12246       -0.27305        0.80110
C          4.63793       -0.43029       -0.49743
O          5.64341       -0.89808       -1.29489
C          6.83320       -0.79563       -0.52215
O          6.43818       -0.64166        0.83500
H          7.42714       -1.71184       -0.63383
H          7.40776        0.09103       -0.84377
