55
M6_hydrate_14_solv.log	Energy: -952642.3819927
C          2.99429       -1.02941       -1.46968
N          3.80479       -1.31015       -0.29563
C          3.31271       -1.06361        0.92243
C          1.88668       -2.06283       -1.65905
H          3.64502       -1.09896       -2.34992
N          3.77504       -1.71622        1.97785
H          4.42110       -2.48868        1.85375
H          3.57907       -1.39888        2.92063
H          4.57125       -1.97104       -0.37598
N          2.34123       -0.14980        1.06330
C          0.40517        0.93869        0.17277
C          0.05342        0.28784        1.54042
C          1.38497       -0.15206        2.16622
O          0.01084        2.27250        0.23188
H          1.33247       -1.15401        2.61050
H          1.70211        0.54981        2.95071
H          1.20854       -1.76014       -2.46759
H          2.32896       -3.03714       -1.90994
O          1.18223       -2.18573       -0.43040
C         -0.14191       -2.33826       -0.41746
O         -0.77980       -2.61190       -1.40921
C          2.49781        0.41189       -1.38551
C          1.97921        0.80246        0.02605
N          2.63139        2.08008        0.23834
C          3.54519        2.34318       -0.69915
N          3.57445        1.36600       -1.60409
H          1.70031        0.56486       -2.12210
N          4.30394        3.41935       -0.71808
H          2.43415        2.68243        1.03081
H          4.05734        1.44905       -2.49277
H          4.96471        3.56797       -1.47294
H          4.23251        4.10885        0.02204
H         -0.33939        1.10687        2.15155
C         -0.68598       -2.20120        0.98404
C         -1.05188       -0.80096        1.53626
H          0.06928       -2.63827        1.65165
H         -1.20996       -1.00094        2.60797
H         -1.58057       -2.83462        1.04941
C         -3.05151       -0.74273       -0.09158
C         -2.38115       -0.22909        1.04002
C         -2.95104        0.83752        1.74684
C         -4.16558        1.43081        1.37059
H         -2.65223       -1.56861       -0.68038
H         -2.44487        1.22169        2.63544
H         -4.59390        2.26139        1.93274
O         -0.15344        0.31541       -0.93798
H          0.22653        2.69179       -0.61443
H         -1.11702        0.40699       -0.89279
C         -4.79437        0.91098        0.25856
C         -4.24644       -0.15182       -0.44925
O         -5.05439       -0.44757       -1.51036
C         -6.24854        0.29901       -1.30826
O         -5.95570        1.30355       -0.34442
H         -6.55583        0.76884       -2.25143
H         -7.03972       -0.36673       -0.92035
