55
M6_hydrate_15_solv.log	Energy: -952641.8606014
C         -3.10312        0.97230        1.48282
N         -2.53410       -0.05442        2.34135
C         -1.55806       -0.87453        1.93920
C         -2.29615        2.26115        1.48109
H         -4.08589        1.23197        1.89763
N         -0.79042       -1.47586        2.83763
H         -0.86656       -1.22722        3.81820
H         -0.19500       -2.25442        2.58154
H         -2.66828        0.04831        3.34316
N         -1.37989       -1.10655        0.63110
C         -1.24256       -0.11424       -1.53162
C          0.17214       -0.41743       -0.96179
C         -0.13550       -1.56543        0.00455
O         -1.34821       -0.91944       -2.66743
H          0.65577       -1.72275        0.74560
H         -0.31520       -2.51684       -0.51593
H         -2.79775        3.01875        0.86468
H         -2.19569        2.64372        2.50612
O         -1.00362        1.97904        0.97201
C         -0.47561        2.72981       -0.00052
O         -0.94789        3.78382       -0.35757
C         -3.34223        0.40451        0.08432
C         -2.26860       -0.60652       -0.40866
N         -3.09824       -1.67816       -0.93033
C         -4.38570       -1.53097       -0.60499
N         -4.56560       -0.38411        0.04291
H         -3.40480        1.23110       -0.63460
N         -5.33191       -2.39884       -0.89487
H         -2.71248       -2.51710       -1.35240
H         -5.48031        0.02092        0.21425
H         -6.29532       -2.21236       -0.63803
H         -5.10653       -3.25975       -1.38116
H          0.75573       -0.77462       -1.81818
C          0.80127        2.13494       -0.52809
C          1.01438        0.65175       -0.20144
H          1.61066        2.70873       -0.04651
H          0.77856        0.55408        0.86561
H          0.86438        2.36507       -1.60047
C          3.19816       -0.16797        0.78188
C          2.48586        0.29180       -0.34392
C          3.13524        0.41951       -1.57595
C          4.49438        0.10625       -1.73900
H          2.71304       -0.28134        1.75323
H          2.57276        0.77400       -2.44340
H          4.99412        0.20620       -2.70326
O         -1.54449        1.20022       -1.84523
H         -2.24004       -0.82138       -3.03232
H         -0.98466        1.47070       -2.58688
C          5.16942       -0.33658       -0.62013
C          4.53352       -0.47107        0.60976
O          5.42505       -0.95842        1.52401
C          6.69986       -0.88244        0.89700
O          6.47122       -0.73815       -0.49861
H          7.24587       -0.00018        1.27622
H          7.26190       -1.80563        1.08776
