55
M6_hydrate_22_solv.log	Energy: -952639.7409308
C          3.21102       -0.79596       -1.33752
N          3.94197       -0.92349       -0.08265
C          3.27491       -0.89804        1.07823
C          2.52110       -2.10759       -1.71876
H          3.95118       -0.62304       -2.12893
N          3.75196       -1.49345        2.15594
H          4.57058       -2.08986        2.08587
H          3.36056       -1.31532        3.07452
H          4.82498       -1.42694       -0.10197
N          2.10728       -0.23539        1.10435
C          0.23952        1.07027        0.36859
C         -0.17250        0.09772        1.52232
C          1.15303       -0.23192        2.20821
O          0.06078        2.35197        0.87954
H          1.14427       -1.20376        2.71696
H          1.42455        0.54010        2.94478
H          1.96477       -1.99328       -2.65705
H          3.28123       -2.88781       -1.83906
O          1.66519       -2.56591       -0.66903
C          0.40500       -2.14385       -0.65541
O         -0.09839       -1.57596       -1.60657
C          2.30848        0.45624       -1.29566
C          1.82262        0.80980        0.14397
N          2.59487        2.00798        0.43572
C          3.20142        2.48549       -0.65827
N          3.03909        1.65083       -1.67961
H          1.45824        0.31289       -1.97024
N          3.86114        3.62340       -0.70288
H          2.36192        2.60005        1.22781
H          3.52322        1.74384       -2.56668
H          4.31326        3.92161       -1.56055
H          3.93620        4.20451        0.12489
H         -0.75660        0.71652        2.21003
C         -0.28153       -2.37649        0.65609
C         -1.03987       -1.15965        1.22906
H          0.46560       -2.72635        1.37787
H         -1.30847       -1.49975        2.24305
H         -0.98287       -3.21349        0.52139
C         -3.08860        0.31562        0.99290
C         -2.37928       -0.83146        0.56146
C         -2.95773       -1.65624       -0.40577
C         -4.21648       -1.38868       -0.97714
H         -2.69644        0.99682        1.74766
H         -2.43037       -2.53959       -0.76299
H         -4.64754       -2.04834       -1.73102
O         -0.47996        1.00563       -0.81363
H          0.25625        2.99261        0.17968
H         -0.58789        0.08996       -1.12911
C         -4.87332       -0.26024       -0.54473
C         -4.31405        0.57005        0.42295
O         -5.18248        1.59102        0.69092
C         -6.18805        1.51803       -0.31239
O         -6.09986        0.22598       -0.90056
H         -7.17725        1.65089        0.14422
H         -6.00000        2.28813       -1.08139
