55
M6_hydrate_2_solv.log	Energy: -952638.7497043
C         -2.25061        0.77022       -1.87097
N         -3.18335        1.40573       -0.95041
C         -3.00191        1.33818        0.37137
C         -0.95471        1.54616       -2.08051
H         -2.74071        0.73970       -2.85242
N         -3.58969        2.20107        1.18323
H         -4.06309        3.01456        0.80335
H         -3.60827        2.05030        2.18574
H         -3.81701        2.11270       -1.31029
N         -2.19590        0.37831        0.85025
C         -0.44979       -1.23661        0.68990
C         -0.15182       -0.21388        1.83767
C         -1.53649        0.36640        2.15326
O         -0.52168       -2.47939        1.32887
H         -1.50798        1.37386        2.58365
H         -2.08686       -0.28379        2.85005
H         -0.37702        1.06556       -2.87890
H         -1.17088        2.58429       -2.36052
O         -0.13133        1.50560       -0.91721
C         -0.19073        2.50617       -0.04032
O         -0.82331        3.52024       -0.23439
C         -2.01019       -0.67436       -1.43203
C         -1.88090       -0.83319        0.11110
N         -2.85682       -1.87094        0.38838
C         -3.55105       -2.22538       -0.69655
N         -3.14286       -1.52705       -1.75063
H         -1.10350       -1.05290       -1.91739
N         -4.49912       -3.13972       -0.71062
H         -2.95107       -2.31276        1.29697
H         -3.46432       -1.69320       -2.69831
H         -4.97832       -3.36598       -1.57528
H         -4.76427       -3.61744        0.14360
H          0.15109       -0.84231        2.68192
C          0.59993        2.26530        1.21481
C          0.98056        0.85481        1.69716
H          0.03205        2.78135        2.00032
H          1.24109        1.04637        2.74939
H          1.52047        2.86254        1.10897
C          2.83433        0.79811       -0.08669
C          2.26167        0.28270        1.09527
C          2.88299       -0.78973        1.74778
C          4.05274       -1.39622        1.25778
H          2.38748        1.62020       -0.64366
H          2.44671       -1.17813        2.67090
H          4.51983       -2.23582        1.77359
O          0.42634       -1.29587       -0.37862
H         -0.71920       -3.15275        0.66165
H          1.31497       -1.47167       -0.03761
C          4.58444       -0.87426        0.09851
C          3.98551        0.20015       -0.55180
O          4.69566        0.49140       -1.68153
C          5.89171       -0.27442       -1.59909
O          5.68116       -1.27536       -0.61036
H          6.09570       -0.74809       -2.56815
H          6.72848        0.37783       -1.29295
