55
M6_hydrate_7_solv.log	Energy: -952639.3203740
C          3.54809       -0.65277       -1.20747
N          4.05784       -0.93020        0.12927
C          3.20570       -1.00135        1.15447
C          2.80464       -1.83430       -1.84871
H          4.42676       -0.46436       -1.83502
N          3.49018       -1.68738        2.24591
H          4.31177       -2.28320        2.27175
H          2.92974       -1.59942        3.08687
H          4.94746       -1.41328        0.21168
N          2.04075       -0.34779        1.02069
C          0.32535        1.00517        0.05742
C         -0.28950       -0.01502        1.07516
C          0.90406       -0.48344        1.91657
O         -0.02836        2.27548        0.51578
H          0.80821       -1.52563        2.24516
H          1.03707        0.15385        2.80526
H          2.97176       -1.80956       -2.93167
H          3.17278       -2.78791       -1.44859
O          1.39366       -1.72737       -1.69127
C          0.74890       -2.35722       -0.70659
O          1.28211       -3.12976        0.05798
C          2.70592        0.63432       -1.18919
C          1.91422        0.80251        0.14800
N          2.55010        1.97020        0.73429
C          3.41634        2.54668       -0.10940
N          3.53317        1.82728       -1.21910
H          2.01720        0.63153       -2.03938
N          4.05605        3.66965        0.14072
H          2.12311        2.47387        1.50638
H          4.20855        2.02066       -1.95129
H          4.70389        4.05342       -0.53858
H          3.91190        4.15569        1.01901
H         -0.93136        0.57337        1.73945
C         -0.70431       -1.97111       -0.69178
C         -1.16976       -1.18485        0.56244
H         -1.27176       -2.91216       -0.71988
H         -1.16249       -1.90620        1.39372
H         -0.93028       -1.40834       -1.60216
C         -3.05400        0.54188        0.22950
C         -2.63429       -0.79941        0.35913
C         -3.58517       -1.82409        0.28352
C         -4.94951       -1.57507        0.06671
H         -2.37338        1.39051        0.31115
H         -3.26034       -2.86049        0.40344
H         -5.67650       -2.38609        0.00988
O         -0.02834        0.85312       -1.27306
H          0.28420        2.93178       -0.12560
H         -0.97656        1.01115       -1.38002
C         -5.32720       -0.25566       -0.06927
C         -4.39751        0.77354        0.01424
O         -5.03205        1.96855       -0.17315
C         -6.42515        1.67823       -0.14810
O         -6.56386        0.27251       -0.31473
H         -6.84773        1.97940        0.82667
H         -6.92675        2.20072       -0.97295
