55
M6_hydrate_3_solv.log	Energy: -952638.8387291
C         -2.65451        0.60228       -1.70876
N         -3.51419        1.09322       -0.64016
C         -3.12498        1.04201        0.63720
C         -1.52744        1.55671       -2.08783
H         -3.28014        0.50893       -2.60568
N         -3.68927        1.81303        1.55175
H         -4.30531        2.56864        1.27012
H         -3.51855        1.66483        2.54002
H         -4.28160        1.71340       -0.88045
N         -2.14018        0.19315        0.96616
C         -0.21637       -1.13187        0.49097
C          0.09247       -0.09323        1.62203
C         -1.29913        0.26348        2.15790
O          0.00203       -2.38107        1.08176
H         -1.35323        1.25805        2.61482
H         -1.63790       -0.47169        2.90316
H         -1.00857        1.16437       -2.97044
H         -1.92847        2.55238       -2.31284
O         -0.54951        1.63464       -1.05375
C         -0.62124        2.61758       -0.15871
O         -1.40119        3.53960       -0.24790
C         -2.15248       -0.79685       -1.35147
C         -1.76396       -0.94849        0.14807
N         -2.51873       -2.12723        0.53399
C         -3.33771       -2.54966       -0.43371
N         -3.19674       -1.79311       -1.51659
H         -1.28972       -1.04333       -1.98080
N         -4.15985       -3.57275       -0.32398
H         -2.43139       -2.56869        1.44343
H         -3.64898       -1.98471       -2.40402
H         -4.73690       -3.85189       -1.10990
H         -4.22044       -4.09134        0.54538
H          0.60915       -0.67947        2.38933
C          0.34950        2.48018        0.98033
C          1.01070        1.14422        1.36019
H         -0.19362        2.87803        1.84822
H          1.37948        1.36551        2.37412
H          1.14125        3.22382        0.79317
C          3.11756       -0.20608        1.12757
C          2.27095        0.78776        0.57866
C          2.61984        1.39274       -0.62973
C          3.78358        1.03872       -1.33792
H          2.88658       -0.69631        2.07482
H          1.97412        2.15372       -1.06740
H          4.03866        1.51535       -2.28508
O          0.48379       -1.03279       -0.69790
H         -0.20155       -3.06530        0.42731
H          1.43131       -1.06344       -0.50429
C          4.58068        0.06118       -0.78658
C          4.25070       -0.54568        0.42305
O          5.19436       -1.48285        0.72661
C          6.24607       -1.30282       -0.21542
O          5.73501       -0.49017       -1.26514
H          7.09374       -0.79011        0.27155
H          6.55338       -2.27719       -0.61713
