45
M3_hydrate_6_solv.log	Energy: -714006.6181880
C          0.60951       -1.85550       -1.08708
N          0.58601       -2.34345        0.28329
C          0.23704       -1.54700        1.30139
C         -0.78641       -1.74957       -1.68194
H          1.16715       -2.58327       -1.68975
N         -0.22752       -2.07441        2.42538
H         -0.43508       -3.06642        2.47201
H         -0.29838       -1.52475        3.27373
H          0.51304       -3.34558        0.43098
N          0.37327       -0.22160        1.17462
C          0.19003        1.71430       -0.21856
C         -0.93526        1.71510        0.86718
C         -0.35512        0.78975        1.94241
O          0.94187        2.86466        0.04943
H         -1.11780        0.33003        2.58043
H          0.34702        1.32853        2.59571
H         -0.73078       -1.43608       -2.73336
H         -1.31422       -2.70979       -1.61664
O         -1.46705       -0.75580       -0.93327
C         -2.68452       -0.96240       -0.44205
O         -3.38682       -1.89118       -0.77096
C          1.36607       -0.53039       -1.13676
C          1.07330        0.41191        0.06717
N          2.41676        0.79026        0.47009
C          3.35992        0.08847       -0.16305
N          2.80296       -0.73589       -1.04509
H          1.11903       -0.00551       -2.06751
N          4.65315        0.20719        0.05713
H          2.60434        1.45637        1.21238
H          3.33080       -1.23983       -1.75019
H          5.31671       -0.34649       -0.47374
H          4.99537        0.84670        0.76573
H         -0.91626        2.74154        1.25299
C         -3.02204        0.04135        0.62131
C         -2.44134        1.46373        0.54861
H         -2.73248       -0.45481        1.56366
H         -2.92408        1.95287        1.40965
H         -4.11823        0.11186        0.65515
C         -2.95434        2.20107       -0.69013
H         -2.55056        3.22467       -0.74179
H         -2.69608        1.67968       -1.62272
H         -4.05077        2.28006       -0.64786
O         -0.17828        1.69503       -1.55402
H          1.67957        2.89748       -0.57721
H         -0.63932        2.52151       -1.74989
