45
M3_hydrate_1_solv.log	Energy: -714009.2776547
C         -1.25166        1.73511       -1.03509
N         -1.45429        2.14357        0.34920
C         -0.71150        1.59412        1.31336
C          0.03453        2.28759       -1.66640
H         -2.08441        2.16513       -1.60367
N         -0.50033        2.21125        2.46107
H         -0.78380        3.17893        2.57822
H         -0.07968        1.72925        3.24789
H         -1.86127        3.05769        0.52321
N         -0.18506        0.38562        1.06241
C          0.33996       -1.63540       -0.08967
C          1.47191       -1.27589        0.92321
C          0.82518       -0.26903        1.88005
O         -0.14047       -2.89248        0.28291
H          1.53906        0.47320        2.25908
H          0.35530       -0.77552        2.73822
H         -0.14089        2.45195       -2.73592
H          0.32019        3.23832       -1.19756
O          1.10345        1.34950       -1.60852
C          2.01574        1.38419       -0.63241
O          2.05877        2.25125        0.21184
C         -1.35008        0.20400       -1.15182
C         -0.79740       -0.52432        0.11526
N         -2.00153       -1.11878        0.67340
C         -3.05186       -0.98865       -0.14765
N         -2.72751       -0.25205       -1.20340
H         -0.81159       -0.12769       -2.04440
N         -4.23600       -1.51995        0.07295
H         -1.94909       -1.84574        1.38097
H         -3.39576        0.06871       -1.89617
H         -4.98976       -1.38624       -0.59236
H         -4.40321       -2.07277        0.90645
H          1.66101       -2.19612        1.48849
C          2.94856        0.21214       -0.74224
C          2.86178       -0.83627        0.39119
H          3.97080        0.61877       -0.73152
H          3.35050       -0.38959        1.27101
H          2.78423       -0.26738       -1.71308
C          3.70486       -2.04646       -0.01511
H          3.78565       -2.76358        0.81475
H          3.27687       -2.57773       -0.87999
H          4.72108       -1.73184       -0.29555
O          0.69067       -1.62982       -1.43111
H         -0.82804       -3.15402       -0.34813
H          1.35635       -2.31579       -1.57636
