45
M3_hydrate_16_solv.log	Energy: -714004.9970926
C          0.65156       -1.86087       -1.05773
N          0.60604       -2.32487        0.31964
C          0.26705       -1.51095        1.32649
C         -0.73131       -1.78051       -1.68895
H          1.22154       -2.59812       -1.63725
N         -0.17838       -2.01846        2.46694
H         -0.37998       -3.01046        2.53648
H         -0.24717       -1.45078        3.30345
H          0.55124       -3.32509        0.48707
N          0.38897       -0.18713        1.16787
C          0.13319        1.69476       -0.30611
C         -0.93970        1.72743        0.83990
C         -0.32406        0.84114        1.92719
O          0.89584        2.86201       -0.31426
H         -1.06738        0.39934        2.60026
H          0.39287        1.40153        2.54644
H         -0.65319       -1.50214       -2.74819
H         -1.26117       -2.73677       -1.60098
O         -1.45089       -0.75900       -0.99980
C         -2.64401       -1.00341       -0.43464
O         -3.30587       -1.97335       -0.70842
C          1.40925       -0.53536       -1.11878
C          1.08009        0.43387        0.04939
N          2.40910        0.86020        0.45123
C          3.37250        0.15359       -0.14107
N          2.84302       -0.73142       -0.98449
H          1.18506       -0.03138       -2.06913
N          4.66188        0.31106        0.07810
H          2.58158        1.55720        1.16836
H          3.39055       -1.22057       -1.68534
H          5.33950       -0.25218       -0.42412
H          4.98806        0.99537        0.75160
H         -0.93623        2.76884        1.18873
C         -2.98222       -0.00343        0.63241
C         -2.45128        1.43971        0.58182
H         -2.66050       -0.50514        1.56220
H         -2.90276        1.87849        1.48560
H         -4.07913        0.03073        0.69053
C         -3.05308        2.21405       -0.59549
H         -2.62565        3.22476       -0.66787
H         -2.90303        1.71265       -1.56214
H         -4.13886        2.31466       -0.44938
O         -0.34944        1.62633       -1.60074
H          1.01244        3.19385        0.58438
H         -0.96714        0.88152       -1.65656
