45
M3_hydrate_8_solv.log	Energy: -714010.8271952
C         -0.99725        1.79035       -1.07118
N         -1.25156        2.26309        0.28061
C         -0.76624        1.58304        1.32632
C          0.44022        2.07295       -1.51151
H         -1.65202        2.35041       -1.75006
N         -0.54563        2.19381        2.48092
H         -0.64427        3.20137        2.54882
H         -0.39348        1.66520        3.33235
H         -1.46653        3.24617        0.41711
N         -0.51119        0.27423        1.19314
C          0.25923       -1.51050       -0.19189
C          1.17173       -1.39759        1.06469
C          0.41323       -0.47879        2.03585
O          0.83932       -1.10333       -1.38783
H         -0.14561       -1.06301        2.78137
H          1.07754        0.20836        2.57442
H          0.67386        1.54946       -2.44794
H          0.57230        3.15339       -1.66358
O          1.30312        1.65501       -0.46657
C          2.45271        1.02150       -0.71043
O          2.95755        0.95468       -1.80780
C         -1.40933        0.32301       -1.15866
C         -0.95595       -0.52255        0.06279
N         -2.16715       -1.25249        0.38445
C         -3.22512       -0.79600       -0.29219
N         -2.85549        0.17045       -1.12953
H         -1.00023       -0.11449       -2.07663
N         -4.45499       -1.24382       -0.14683
H         -2.21149       -1.97615        1.09441
H         -3.46014        0.53521       -1.85813
H         -5.20685       -0.87082       -0.71610
H         -4.65760       -1.97551        0.52577
H          1.18820       -2.40646        1.49468
C          3.01172        0.45322        0.56497
C          2.66310       -1.02319        0.86869
H          2.67714        1.09421        1.39162
H          3.08371       -1.17934        1.87479
H          4.10665        0.52548        0.50431
C          3.41398       -1.98610       -0.05803
H          3.05168       -3.01819        0.06071
H          3.33679       -1.71003       -1.12062
H          4.48712       -1.97543        0.18207
O         -0.16672       -2.83376       -0.27792
H          1.55137       -1.71740       -1.60842
H         -0.76445       -2.91625       -1.03573
