45
M3_hydrate_7_solv.log	Energy: -714010.7913017
C         -0.88001        2.10455        0.10880
N         -0.94948        1.78709        1.52616
C         -0.54212        0.61625        2.02652
C          0.48453        2.61922       -0.32284
H         -1.58408        2.92681       -0.07338
N         -0.22377        0.52570        3.31110
H         -0.18466        1.36325        3.88239
H         -0.13349       -0.37439        3.76815
H         -1.04021        2.56182        2.17682
N         -0.48398       -0.46129        1.23206
C          0.17688       -1.29852       -0.90063
C          1.22100       -1.66356        0.19339
C          0.34937       -1.64762        1.45308
O          0.60179       -0.53767       -1.97670
H          0.93594       -1.56059        2.37407
H         -0.29162       -2.53724        1.53397
H          0.46177        2.89921       -1.38426
H          0.75911        3.50070        0.27298
O          1.44212        1.59910       -0.09603
C          2.29890        1.24345       -1.06015
O          2.45017        1.87658       -2.07946
C         -1.36523        0.90986       -0.71068
C         -0.96983       -0.48197       -0.14119
N         -2.23125       -1.19729       -0.22452
C         -3.25655       -0.39156       -0.51502
N         -2.81916        0.84533       -0.72895
H         -0.98129        0.99562       -1.73471
N         -4.51380       -0.77686       -0.58142
H         -2.33131       -2.17284        0.03710
H         -3.39389        1.57904       -1.13058
H         -5.23849       -0.11808       -0.84518
H         -4.76411       -1.74268       -0.39933
H          1.53597       -2.68789       -0.04425
C          3.08138        0.01759       -0.68019
C          2.49854       -0.81689        0.46109
H          4.06799        0.39227       -0.35764
H          2.25750       -0.10077        1.25984
H          3.26944       -0.56300       -1.59504
C          3.57267       -1.75749        1.01090
H          3.18468       -2.35570        1.84952
H          3.92036       -2.45441        0.23152
H          4.44207       -1.19017        1.37525
O         -0.31801       -2.52754       -1.34462
H          1.23198       -1.06209       -2.49012
H         -0.99934       -2.36113       -2.01207
