45
M3_hydrate_11_solv.log	Energy: -714009.2393202
C         -1.00075        1.79516       -1.05972
N         -1.25545        2.25796        0.29570
C         -0.76689        1.57089        1.33536
C          0.43775        2.08313       -1.49611
H         -1.65504        2.36074       -1.73448
N         -0.54442        2.17328        2.49398
H         -0.64282        3.18033        2.56916
H         -0.38799        1.63911        3.34109
H         -1.46750        3.24071        0.43927
N         -0.51187        0.26351        1.19075
C          0.25868       -1.50420       -0.22021
C          1.16378       -1.41324        1.05316
C          0.40585       -0.50052        2.03005
O          0.85169       -1.04814       -1.38532
H         -0.15809       -1.08905        2.76846
H          1.07129        0.17849        2.57735
H          0.67509        1.56256       -2.43322
H          0.56571        3.16441       -1.64571
O          1.30140        1.66631       -0.45097
C          2.45064        1.03192       -0.69608
O          2.96343        0.98034       -1.79058
C         -1.41375        0.32823       -1.15877
C         -0.96005       -0.52422        0.05673
N         -2.17143       -1.25292        0.37886
C         -3.22768       -0.79831       -0.29960
N         -2.85959        0.17291       -1.13284
H         -1.00284       -0.10250       -2.07894
N         -4.45742       -1.24929       -0.15890
H         -2.22491       -1.96152        1.10351
H         -3.46140        0.52969       -1.86768
H         -5.20898       -0.87402       -0.72692
H         -4.65948       -1.98769        0.50637
H          1.19160       -2.42265        1.48560
C          3.00241        0.44576        0.57502
C          2.65573       -1.03486        0.86296
H          2.66517        1.07740        1.40774
H          3.07579       -1.19910        1.86806
H          4.09763        0.51891        0.52017
C          3.40845       -1.98865       -0.07122
H          3.04528       -3.02159        0.03733
H          3.33268       -1.70382       -1.13129
H          4.48104       -1.98045        0.17143
O         -0.17789       -2.80423       -0.47635
H          1.54279       -1.67169       -1.64234
H         -0.26781       -3.29735        0.34852
