45
M3_hydrate_3_solv.log	Energy: -714009.0315392
C         -1.23862        1.73975       -1.03385
N         -1.43421        2.15796        0.34892
C         -0.68673        1.61231        1.31229
C          0.04852        2.28189       -1.67231
H         -2.07209        2.16870       -1.60207
N         -0.45842        2.24041        2.45063
H         -0.72996        3.21255        2.55883
H         -0.03149        1.76486        3.23801
H         -1.82784        3.07915        0.51650
N         -0.17615        0.39566        1.06915
C          0.31438       -1.64182       -0.06608
C          1.46710       -1.27616        0.92043
C          0.83777       -0.26151        1.87986
O          0.78321       -1.70536       -1.36854
H          1.56225        0.47677        2.24613
H          0.37355       -0.75886        2.74629
H         -0.12973        2.44353       -2.74180
H          0.34337        3.23204       -1.20816
O          1.11024        1.33552       -1.61425
C          2.02961        1.37133       -0.64436
O          2.08175        2.24305        0.19459
C         -1.33846        0.20766       -1.14274
C         -0.81076       -0.51448        0.13721
N         -2.03364       -1.06545        0.70243
C         -3.05969       -0.96478       -0.15389
N         -2.71204       -0.25224       -1.21922
H         -0.77987       -0.12241       -2.02476
N         -4.24623       -1.49943        0.04518
H         -1.98436       -1.82298        1.37737
H         -3.36739        0.06437       -1.92620
H         -4.98156       -1.38746       -0.64429
H         -4.43395       -2.03137        0.88788
H          1.66185       -2.19003        1.49629
C          2.95462        0.19385       -0.75521
C          2.85723       -0.85864        0.37339
H          3.97963        0.59316       -0.74094
H          3.36431       -0.42629        1.25035
H          2.78825       -0.28174       -1.72745
C          3.66071       -2.08856       -0.05164
H          3.76073       -2.79724        0.78390
H          3.17166       -2.61087       -0.88685
H          4.67196       -1.79978       -0.37535
O         -0.30244       -2.84212        0.28913
H          0.12015       -2.15992       -1.90838
H          0.36918       -3.53854        0.27910
