45
M3_hydrate_15_solv.log	Energy: -714006.4000218
C         -1.19999        1.70912       -1.11229
N         -1.39048        2.18296        0.25040
C         -0.71865        1.60750        1.24866
C          0.13330        2.12065       -1.74080
H         -1.97672        2.18902       -1.71988
N         -0.52865        2.22401        2.40051
H         -0.76875        3.20548        2.49867
H         -0.15833        1.73089        3.20539
H         -1.78228        3.10793        0.39807
N         -0.23128        0.37567        1.02628
C          0.34211       -1.61015       -0.18776
C          1.41122       -1.30520        0.92102
C          0.75509       -0.28970        1.86336
O         -0.16369       -2.90181       -0.08806
H          1.47121        0.44538        2.25323
H          0.26647       -0.78693        2.71613
H          0.02143        2.12338       -2.83114
H          0.42856        3.12150       -1.40225
O          1.18443        1.18467       -1.48335
C          2.09377        1.38119       -0.50684
O          2.07535        2.34159        0.22220
C         -1.43394        0.19331       -1.16635
C         -0.83765       -0.53884        0.07641
N         -2.01129       -1.17467        0.64631
C         -3.11261       -0.95352       -0.07744
N         -2.84142       -0.14686       -1.09735
H         -1.00411       -0.20848       -2.09271
N         -4.29608       -1.46537        0.19098
H         -1.95026       -1.90414        1.34939
H         -3.52865        0.16745       -1.77387
H         -5.09208       -1.25384       -0.40069
H         -4.42547       -2.06035        1.00183
H          1.54612       -2.23879        1.48355
C          3.08838        0.25326       -0.49528
C          2.85056       -0.92076        0.49755
H          4.06332        0.69645       -0.25198
H          3.31983       -0.61747        1.44581
H          3.15333       -0.13687       -1.51954
C          3.61414       -2.14153       -0.01487
H          4.65840       -1.87898       -0.24108
H          3.62028       -2.94182        0.73988
H          3.15424       -2.53707       -0.93219
O          0.80481       -1.54471       -1.49540
H         -0.06262       -3.23473        0.81183
H          1.01889       -0.62815       -1.73379
