45
M3_hydrate_12_solv.log	Energy: -714004.6255254
C          0.57276       -1.78619       -1.18667
N          0.48642       -2.34385        0.15582
C          0.11117       -1.60047        1.20273
C         -0.77871       -1.65207       -1.87679
H          1.15808       -2.49023       -1.79198
N         -0.35821       -2.17561        2.29899
H         -0.58497       -3.16468        2.29672
H         -0.47092       -1.65374        3.16051
H          0.42627       -3.35309        0.25358
N          0.21793       -0.26820        1.11397
C          0.24161        1.77128       -0.12060
C         -0.97055        1.73536        0.87739
C         -0.49411        0.72083        1.92293
O          1.07398        2.85354        0.19972
H         -1.30863        0.25641        2.48846
H          0.19759        1.18008        2.64586
H         -0.62896       -1.31408       -2.90928
H         -1.30944       -2.61149       -1.87951
O         -1.55606       -0.65331       -1.22337
C         -2.49875       -1.02577       -0.35700
O         -2.86291       -2.17325       -0.22772
C          1.33826       -0.46418       -1.14594
C          1.03398        0.40064        0.11293
N          2.36625        0.65173        0.63056
C          3.31738        0.04291       -0.08099
N          2.77307       -0.67710       -1.05601
H          1.10195        0.11437       -2.04646
N          4.60874        0.14290        0.16146
H          2.56155        1.37360        1.31618
H          3.30970       -1.14278       -1.78008
H          5.28019       -0.32591       -0.43659
H          4.94163        0.70411        0.93754
H         -0.98680        2.73473        1.33237
C         -3.04504        0.10325        0.46728
C         -2.44673        1.51766        0.41492
H         -3.05343       -0.28720        1.49593
H         -3.00119        2.02278        1.22147
H         -4.11132        0.17684        0.19671
C         -2.84138        2.25821       -0.86505
H         -2.51148        1.73876       -1.77359
H         -3.93705        2.34641       -0.91094
H         -2.43170        3.28072       -0.87548
O         -0.03419        1.86680       -1.46848
H          0.95586        3.10834        1.12369
H         -0.46225        2.71790       -1.63057
