33
dc-STX_ketone_1_solv.log	Energy: -521660.9589781
C          1.02436       -1.41547        0.54616
N          1.27837       -1.22193       -0.87729
C          1.13199       -0.00956       -1.41907
C          2.09963       -0.77890        1.41983
H          1.03788       -2.49787        0.72814
N          1.79717        0.33817       -2.50783
H          2.51843       -0.27257       -2.87770
H          1.54740        1.16681       -3.03665
H          1.92935       -1.85800       -1.32749
N          0.28952        0.85350       -0.82404
C         -0.67925        1.68197        1.12612
C          0.01434        2.82255        0.43729
C          0.34184        2.31669       -0.96550
O         -1.16805        1.65792        2.22276
H         -0.61911        3.71920        0.45256
H          0.92768        3.04436        1.01157
H          1.34208        2.62044       -1.29564
H         -0.39490        2.65590       -1.70777
H          1.84541       -0.98371        2.47467
H          2.10209        0.31930        1.28702
O          3.33420       -1.34584        1.05401
C         -0.36634       -0.89666        0.88228
C         -0.67336        0.45008        0.18215
N         -2.00017        0.22055       -0.36004
C         -2.34893       -1.07222       -0.27887
N         -1.42140       -1.75896        0.37962
H         -0.46660       -0.76833        1.97028
N         -3.45649       -1.57465       -0.77957
H         -2.49140        0.90107       -0.93266
H         -1.52839       -2.72814        0.66080
H         -3.67401       -2.55829       -0.65975
H         -4.11221       -0.97849       -1.27329
H          4.03226       -0.86588        1.51350
