33
dc-STX_ketone_2_solv.log	Energy: -521660.4300541
C          0.80450       -1.65267       -0.34621
N          0.98537       -0.93683       -1.59941
C          1.06442        0.39611       -1.60201
C          2.07641       -1.62188        0.50242
H          0.58509       -2.69938       -0.59285
N          1.67097        1.04830       -2.57898
H          2.18997        0.53806       -3.28663
H          1.55254        2.04937       -2.69337
H          1.35655       -1.43972       -2.40002
N          0.51358        1.06310       -0.57281
C         -0.14439        1.18959        1.65885
C          0.77841        2.34255        1.38329
C          0.90673        2.41071       -0.13603
O         -0.59897        0.83189        2.71148
H          0.39135        3.26161        1.84212
H          1.74308        2.10659        1.86033
H          1.93341        2.61718       -0.46060
H          0.23755        3.16708       -0.57118
H          2.30866       -0.58267        0.79909
H          2.91113       -1.98547       -0.12198
O          1.86468       -2.44409        1.62414
C         -0.39556       -1.08463        0.40374
C         -0.45204        0.46204        0.32388
N         -1.82604        0.70381       -0.07616
C         -2.45917       -0.43425       -0.39463
N         -1.66641       -1.47826       -0.17819
H         -0.34112       -1.39968        1.45470
N         -3.69169       -0.49617       -0.85162
H         -2.20627        1.63056       -0.24343
H         -1.96958       -2.44374       -0.25194
H         -4.11955       -1.39377       -1.05152
H         -4.22741        0.35235       -0.99892
H          2.55272       -2.25391        2.27158
