33
dc-STX_ketone_4_solv.log	Energy: -521661.3340750
C          1.00076       -1.41560        0.58070
N          1.27355       -1.25121       -0.84340
C          1.17461       -0.03456       -1.38738
C          2.07362       -0.75626        1.45524
H          1.00395       -2.49465        0.78425
N          1.87179        0.29951       -2.45904
H          2.58724       -0.32591       -2.81542
H          1.65731        1.13925       -2.98606
H          1.92537       -1.90009       -1.27394
N          0.34225        0.84753       -0.80664
C         -0.73426        1.70129        1.07650
C          0.04612        2.81765        0.44472
C          0.44000        2.30885       -0.93856
O         -1.32591        1.70115        2.12167
H         -0.54555        3.74204        0.43196
H          0.93158        2.99080        1.07725
H          1.46503        2.58672       -1.21048
H         -0.24491        2.67077       -1.71905
H          1.82699       -0.95952        2.51129
H          2.05886        0.33732        1.31922
O          3.36445       -1.19650        1.11540
C         -0.38956       -0.87864        0.89218
C         -0.67022        0.45613        0.15311
N         -1.96704        0.21150       -0.44992
C         -2.34651       -1.06685       -0.31279
N         -1.45156       -1.73959        0.40301
H         -0.49569       -0.72440        1.97614
N         -3.45225       -1.57117       -0.81622
H         -2.45166        0.88914       -1.03096
H         -1.57828       -2.69788        0.71143
H         -3.68899       -2.54523       -0.66031
H         -4.08397       -0.98748       -1.35417
H          3.43978       -2.12603        1.36546
