33
dc-STX_ketone_5_solv.log	Energy: -521661.2090739
C         -0.96067       -1.42797       -0.64764
N         -1.25443       -1.31279        0.77747
C         -1.17891       -0.11874        1.37130
C         -2.03887       -0.76704       -1.51551
H         -0.93913       -2.49952       -0.88186
N         -1.87197        0.15563        2.46242
H         -2.56483       -0.50231        2.80476
H         -1.66753        0.97775        3.02053
H         -1.84605       -2.01884        1.20527
N         -0.37613        0.80636        0.81670
C          0.71127        1.74891       -1.01783
C         -0.12302        2.81834       -0.37365
C         -0.52216        2.25938        0.98844
O          1.33521        1.80323       -2.04263
H          0.43069        3.76476       -0.32687
H         -1.00323        2.97149       -1.01874
H         -1.55963        2.49630        1.25168
H          0.13901        2.62086        1.78942
H         -1.81587       -1.00331       -2.56576
H         -2.00214        0.33288       -1.41171
O         -3.31929       -1.26877       -1.22210
C          0.41904       -0.84559       -0.92749
C          0.65899        0.47067       -0.13978
N          1.95123        0.23393        0.47575
C          2.36394       -1.02906        0.29876
N          1.49779       -1.69577       -0.45698
H          0.52969       -0.65360       -2.00503
N          3.47396       -1.52513        0.80120
H          2.40991        0.90142        1.08855
H          1.64965       -2.64066       -0.79388
H          3.73170       -2.48966        0.62113
H          4.07765       -0.95063        1.37971
H         -3.61803       -0.87171       -0.39478
