33
dc-STX_ketone_6_solv.log	Energy: -521660.9788708
C          0.81571       -1.64662       -0.34496
N          1.02676       -0.91871       -1.58723
C          1.10253        0.41417       -1.57763
C          2.07423       -1.63253        0.53722
H          0.59599       -2.68909       -0.61116
N          1.72704        1.07610       -2.53688
H          2.26049        0.57279       -3.23870
H          1.60910        2.07788       -2.64508
H          1.41180       -1.41406       -2.38607
N          0.53058        1.07127       -0.55348
C         -0.18291        1.18295        1.66206
C          0.75005        2.33476        1.41755
C          0.91157        2.41593       -0.09784
O         -0.66835        0.82154        2.69951
H          0.35825        3.25141        1.87700
H          1.70352        2.08883        1.91199
H          1.94492        2.62622       -0.39777
H          0.25102        3.17500       -0.54149
H          2.31927       -0.59930        0.83080
H          2.91613       -2.01783       -0.06227
O          1.88943       -2.36557        1.72175
C         -0.39721       -1.08430        0.38702
C         -0.45552        0.46296        0.31523
N         -1.81975        0.70501       -0.11560
C         -2.44955       -0.43267       -0.44032
N         -1.65992       -1.47704       -0.21400
H         -0.35692       -1.40644        1.43660
N         -3.67666       -0.49362       -0.91209
H         -2.20201        1.63219       -0.27537
H         -1.96294       -2.44216       -0.29223
H         -4.10368       -1.39077       -1.11559
H         -4.21025        0.35543       -1.06391
H          1.78692       -3.29685        1.48816
