59
ZTX_ketone_242_solv.log	Energy: -1435165.8722226
C         -1.30337        1.33328        1.24897
N         -0.61065        1.10218        2.49367
C          0.37692        0.21767        2.62083
C         -0.72492        2.35981        0.24499
H         -2.27148        1.77804        1.49763
N          1.11563        0.18820        3.71343
H          1.01067        0.90881        4.42140
H         -0.88257        1.64857        3.30647
N          0.63985       -0.62243        1.59738
C          0.62499       -0.73949       -0.73915
C          2.08094       -0.63751       -0.25308
C          1.99691       -1.03783        1.23373
O          0.23674       -0.70847       -1.87024
H          2.73999       -0.50359        1.83700
H          2.13401       -2.11421        1.38800
O         -1.46611        3.22775       -0.16938
C         -1.53508        0.02046        0.50549
C         -0.28930       -0.87310        0.50122
N         -0.87466       -2.18847        0.56428
C         -2.13916       -2.14099        0.98348
N         -2.54337       -0.85508        1.12160
H         -1.81555        0.23081       -0.53841
N         -2.87283       -3.20084        1.22392
H         -0.32305       -3.02801        0.38152
C         -3.92090       -0.47746        1.27884
H         -3.85586       -3.12642        1.46310
C          2.59738        0.80032       -0.43669
O         -4.67643       -0.66176        0.09632
H         -4.39037       -1.10682        2.04257
H         -3.97034        0.56471        1.61098
C         -4.69400        0.35922       -0.79065
O         -4.12354        1.41667       -0.63212
N         -5.40155       -0.00573       -1.88372
H         -6.05037       -0.78840       -1.82828
O         -5.75474        0.98482       -2.75756
H         -5.16003        0.89577       -3.51753
H          3.63351        0.80953       -0.07635
H          2.62003        1.00486       -1.51674
N          0.49154        2.09328       -0.34844
C          1.80944        1.89785        0.27878
C          2.38774        3.32364        0.13423
C          1.78300        3.79218       -1.18993
O          0.72289        2.86388       -1.47894
H          1.70003        1.69516        1.34706
C          3.89775        3.49407        0.28079
H          1.93514        3.90835        0.94932
H          1.37380        4.81047       -1.12535
H          2.48594        3.73246       -2.03236
O          4.67219        2.93287       -0.75508
H          4.11245        4.57077        0.39025
H          4.21107        3.00836        1.21761
H          4.63554        3.51714       -1.52080
O          2.93364       -1.43888       -1.03757
S          2.75522       -3.10461       -1.01860
O          3.63562       -3.56094        0.05957
O          1.31927       -3.31407       -0.74017
O          3.18134       -3.46344       -2.36548
H         -2.46409       -4.12627        1.13407
H          1.76323       -0.57420        3.88580
