59
ZTX_ketone_302_solv.log	Energy: -1435166.3372385
C         -1.52879        1.11585       -0.59776
N         -1.57981        1.12646        0.84435
C         -0.75146        0.40993        1.60157
C         -0.60778        2.10755       -1.34586
H         -2.52500        1.41536       -0.93571
N         -0.71050        0.58064        2.90855
H         -1.23364        1.33583        3.34197
H         -2.36357        1.60261        1.28518
N          0.09010       -0.45828        1.00260
C          1.30617       -0.81905       -0.95861
C          2.27758       -0.42679        0.16989
C          1.46421       -0.67873        1.45573
O          1.56724       -0.95773       -2.11768
H          1.72520        0.03373        2.24749
H          1.59523       -1.69479        1.84519
O         -1.09726        2.74467       -2.25939
C         -1.24197       -0.28821       -1.12298
C         -0.10631       -0.97182       -0.34945
N         -0.53483       -2.34840       -0.35334
C         -1.84362       -2.44351       -0.60033
N         -2.34578       -1.24079       -0.95247
H         -0.96819       -0.23542       -2.18871
N         -2.53267       -3.55646       -0.51957
H          0.07709       -3.09968       -0.03386
C         -3.67206       -1.05711       -1.48802
H         -3.52819       -3.58128       -0.71616
C          2.67828        1.05155        0.03086
O         -4.65394       -1.09550       -0.47224
H         -3.70440       -0.11145       -2.04217
H         -3.92863       -1.87659       -2.17067
C         -4.94567        0.04822        0.18418
O         -4.54411        1.14904       -0.12776
N         -5.72170       -0.23474        1.25506
H         -6.20991       -1.12756        1.29930
O         -6.36930        0.81342        1.84846
H         -5.90351        0.97791        2.68210
H          3.38030        1.24629        0.85275
H          3.23193        1.15924       -0.91355
N          0.75031        2.03856       -1.15557
C          1.53972        2.07214        0.08080
C          2.00390        3.54458        0.05869
C          2.20609        3.79282       -1.43341
O          1.47880        2.74564       -2.10205
H          0.89804        1.93856        0.95419
C          3.20448        3.90109        0.92195
H          1.14723        4.13956        0.40967
H          1.81729        4.76915       -1.75449
H          3.25871        3.69828       -1.73879
O          2.94927        3.72811        2.29912
H          4.09619        3.33563        0.59917
H          3.43310        4.96660        0.76970
H          2.98423        2.78705        2.50815
O          3.48349       -1.14681        0.07325
S          3.47197       -2.80957        0.28713
O          4.56354       -3.22686       -0.58374
O          3.70389       -3.00142        1.72029
O          2.12356       -3.22070       -0.15575
H         -2.07299       -4.41372       -0.22763
H         -0.20197       -0.06730        3.50197
