59
ZTX_ketone_119_solv.log	Energy: -1435167.4580394
C         -1.25819        1.39922        1.14606
N         -0.50804        1.26287        2.37137
C          0.49979        0.40362        2.51236
C         -0.74553        2.35861        0.04341
H         -2.22195        1.84599        1.40673
N          1.28728        0.45778        3.56921
H          1.19745        1.21971        4.23488
H         -0.75860        1.85326        3.15982
N          0.73252       -0.49731        1.53486
C          0.61419       -0.78207       -0.78323
C          2.08900       -0.62706       -0.37256
C          2.07946       -0.91766        1.14193
O          0.17568       -0.83440       -1.89488
H          2.83806       -0.32780        1.66972
H          2.24402       -1.97701        1.36953
O         -1.52399        3.17691       -0.40236
C         -1.50200        0.03579        0.50396
C         -0.24171       -0.83898        0.50435
N         -0.80043       -2.15472        0.68664
C         -2.05132       -2.09775        1.14372
N         -2.46893       -0.81148        1.21865
H         -1.83076        0.17260       -0.53807
N         -2.76225       -3.15071        1.46856
H         -0.24820       -2.99759        0.52140
C         -3.83998       -0.44083        1.43472
H         -3.74032       -3.07534        1.72718
C          2.57111        0.80161       -0.67384
O         -4.66129       -0.70617        0.31294
H         -4.25276       -1.02985        2.26086
H         -3.88697        0.61891        1.70720
C         -4.75226        0.25920       -0.63009
O         -4.19762        1.33486       -0.56808
N         -5.51414       -0.18469       -1.65582
H         -6.14002       -0.97515       -1.51367
O         -5.94711        0.74594       -2.55932
H         -5.40745        0.61783       -3.35379
H          3.61653        0.84530       -0.34174
H          2.55268        0.93476       -1.76564
N          0.44947        2.07152       -0.58203
C          1.79384        1.93430       -0.00231
C          2.35832        3.34450       -0.28720
C          1.67525        3.71765       -1.60310
O          0.61856        2.75670       -1.77582
H          1.73619        1.80972        1.08130
C          3.87376        3.46085       -0.31097
H          1.97532        3.99648        0.51339
H          1.25122        4.73148       -1.58392
H          2.34114        3.61470       -2.47200
O          4.46015        2.99921        0.88666
H          4.29282        2.85445       -1.12771
H          4.14719        4.51072       -0.51735
H          4.15360        3.56336        1.60742
O          2.91980       -1.46956       -1.13648
S          2.76991       -3.13305       -0.99283
O          3.70018       -3.50120        0.07696
O          1.34994       -3.34033       -0.63976
O          3.14602       -3.57914       -2.32828
H         -2.34312       -4.07471        1.42050
H          1.95205       -0.28439        3.76350
