59
ZTX_ketone_249_solv.log	Energy: -1435156.7148075
C          0.87416       -2.07397        0.39150
N          0.42309       -2.27750        1.74775
C         -0.20958       -1.34021        2.45139
C         -0.09205       -2.34485       -0.78722
H          1.66621       -2.80568        0.20674
N         -0.78501       -1.63027        3.60142
H         -0.84639       -2.59416        3.91612
H          0.58794       -3.18208        2.18079
N         -0.28991       -0.09114        1.94772
C         -0.46966        1.09020       -0.06579
C         -1.84181        1.11199        0.64305
C         -1.46093        0.77267        2.09574
O         -0.17796        1.52565       -1.13937
H         -2.26704        0.25213        2.62503
H         -1.20559        1.69320        2.63820
O          0.30256       -3.05525       -1.68948
C          1.43866       -0.66509        0.20568
C          0.55567        0.40133        0.87511
N          1.54509        1.34591        1.33692
C          2.76960        0.80954        1.35947
N          2.74074       -0.44008        0.84279
H          1.51847       -0.43899       -0.86948
N          3.83613        1.41123        1.82886
H          1.31252        2.23595        1.77057
C          3.90164       -1.23022        0.54777
H          4.76339        1.08732        1.53248
C         -2.80570        0.07215        0.04037
O          4.44294       -0.95569       -0.73177
H          4.65335       -1.08235        1.33193
H          3.61836       -2.28661        0.53264
C          5.47135       -0.08578       -0.80839
O          5.94252        0.51172        0.14136
N          5.86548        0.04224       -2.09044
H          5.59501       -0.65542       -2.78127
O          7.04132        0.69312       -2.33015
H          6.80036        1.56341       -2.68297
H         -3.72511        0.14359        0.63829
H         -3.04472        0.38938       -0.98292
N         -1.21480       -1.55525       -0.91398
C         -2.33200       -1.37922        0.02859
C         -3.35585       -2.36922       -0.56815
C         -3.03933       -2.31926       -2.06585
O         -1.78676       -1.62034       -2.17440
H         -2.05297       -1.73269        1.02466
C         -4.82004       -2.11403       -0.24133
H         -3.09192       -3.36510       -0.17899
H         -2.93938       -3.31997       -2.50941
H         -3.77593       -1.73670       -2.63713
O         -5.65078       -3.08610       -0.83850
H         -4.95673       -2.08069        0.85467
H         -5.13996       -1.14276       -0.64666
H         -5.41419       -3.94556       -0.46839
O         -2.45647        2.37955        0.69123
S         -2.67377        3.43095       -0.60156
O         -2.97553        2.59745       -1.77142
O         -3.80108        4.21240       -0.09344
O         -1.41176        4.17184       -0.68801
H          3.74586        2.35711        2.18863
H         -1.12363       -0.89536        4.21403
