59
ZTX_ketone_118_solv.log	Energy: -1435167.6813261
C          0.60202       -1.97607        0.89114
N          0.06202       -1.68314        2.19665
C         -0.56708       -0.54360        2.47905
C         -0.31032       -2.60620       -0.18977
H          1.36155       -2.75182        1.02634
N         -1.22918       -0.40022        3.61049
H         -1.35940       -1.19188        4.23344
H          0.15974       -2.38270        2.92711
N         -0.55421        0.45030        1.56733
C         -0.54036        0.85920       -0.73251
C         -1.93527        1.19257       -0.17154
C         -1.69049        1.34611        1.34294
O         -0.21019        0.84169       -1.88198
H         -2.55908        1.02166        1.92776
H         -1.44404        2.37572        1.62713
O          0.09381       -3.60150       -0.75638
C          1.25512       -0.73788        0.28014
C          0.38841        0.51692        0.45653
N          1.38648        1.53978        0.64142
C          2.57799        1.01967        0.93957
N          2.51446       -0.33429        0.91674
H          1.42723       -0.90477       -0.79565
N          3.64720        1.72225        1.22929
H          1.16021        2.53082        0.54487
C          3.64046       -1.21277        1.03533
H          4.57279        1.28648        1.14911
C         -2.91715        0.04978       -0.48144
O          4.29516       -1.43469       -0.20226
H          4.33913       -0.81736        1.78196
H          3.29097       -2.19460        1.36791
C          5.37521       -0.67995       -0.48700
O          5.81824        0.19323        0.23651
N          5.86123       -1.01287       -1.69852
H          5.59140       -1.89025       -2.13912
O          7.08692       -0.52339       -2.04707
H          6.91982        0.20373       -2.66593
H         -3.87982        0.35089       -0.04627
H         -3.03842        0.00894       -1.57407
N         -1.37517       -1.87400       -0.67268
C         -2.54347       -1.33749        0.04377
C         -3.58912       -2.42972       -0.27302
C         -3.15991       -2.91567       -1.66022
O         -1.85641       -2.34941       -1.88246
H         -2.36865       -1.34147        1.12275
C         -5.05139       -2.01616       -0.18924
H         -3.42525       -3.23840        0.45619
H         -3.09870       -4.01132       -1.72324
H         -3.80878       -2.53773       -2.46306
O         -5.90548       -3.09842       -0.48972
H         -5.26232       -1.59790        0.81154
H         -5.27216       -1.23404       -0.93061
H         -5.76388       -3.78210        0.17661
O         -2.47760        2.32717       -0.80569
S         -1.73718        3.81834       -0.61169
O         -2.04792        4.46884       -1.87803
O         -2.37859        4.40241        0.56856
O         -0.31048        3.49095       -0.40917
H          3.58100        2.73577        1.22262
H         -1.58608        0.50675        3.89366
