59
ZTX_ketone_106_solv.log	Energy: -1435168.3879645
C          1.09713       -1.66690       -0.29729
N          1.14949       -1.52964        1.13771
C          0.51763       -0.55790        1.79273
C         -0.06909       -2.45157       -0.94518
H          1.97180       -2.25541       -0.59226
N          0.40863       -0.58762        3.10682
H          0.71578       -1.40216        3.63011
H          1.68545       -2.21016        1.66946
N         -0.05472        0.43933        1.08600
C         -1.10580        0.95613       -0.93386
C         -2.15792        0.94970        0.19069
C         -1.31850        1.06687        1.47818
O         -1.30813        1.07458       -2.10692
H         -1.77647        0.51848        2.30966
H         -1.16690        2.10686        1.78924
O          0.20770       -3.35464       -1.70719
C          1.17990       -0.29918       -0.97540
C          0.28817        0.75002       -0.29752
N          1.10009        1.93813       -0.40856
C          2.38251        1.63179       -0.62743
N          2.50759        0.31231       -0.89911
H          0.88753       -0.39093       -2.03422
N          3.37620        2.48569       -0.60586
H          0.74468        2.85019       -0.12249
C          3.64269       -0.29735       -1.53994
H          4.33562        2.12209       -0.58397
C         -2.96617       -0.35874        0.15184
O          4.44773       -1.03191       -0.63805
H          3.27917       -1.02825       -2.27088
H          4.24034        0.46066       -2.06109
C          5.39811       -0.35406        0.03314
O          5.62651        0.83327       -0.10507
N          6.02516       -1.17586        0.89972
H          5.95432       -2.18519        0.78385
O          7.18410       -0.72683        1.46651
H          6.96038       -0.48200        2.37728
H         -3.69752       -0.28459        0.96807
H         -3.52064       -0.37782       -0.79814
N         -1.34129       -1.91308       -0.87931
C         -2.16935       -1.65420        0.31041
C         -3.03676       -2.93278        0.33137
C         -3.16353       -3.27327       -1.15692
O         -2.20024       -2.44489       -1.82881
H         -1.55445       -1.65005        1.21453
C         -4.36484       -2.83510        1.07235
H         -2.43887       -3.71117        0.82776
H         -2.94888       -4.33085       -1.36665
H         -4.14834       -3.01034       -1.57060
O         -4.99147       -4.09436        1.18904
H         -4.18351       -2.47155        2.09528
H         -5.03090       -2.10953        0.57386
H         -5.34236       -4.33889        0.32432
O         -3.10577        1.97376        0.00095
S         -2.61916        3.57554        0.08695
O         -1.20453        3.54642       -0.33897
O         -3.53567        4.21319       -0.85027
O         -2.80231        3.94541        1.49247
H          3.19847        3.45178       -0.34823
H          0.07540        0.22257        3.61930
