59
ZTX_ketone_259_solv.log	Energy: -1435155.2271520
C         -1.45061        1.55979        0.92645
N         -0.94175        1.65362        2.27494
C         -0.05183        0.79993        2.77820
C         -0.67586        2.24883       -0.22351
H         -2.40669        2.09103        0.90553
N          0.54292        1.04280        3.92983
H          0.41641        1.93701        4.39461
H         -1.26614        2.41827        2.86091
N          0.26454       -0.30636        2.07181
C          0.53029       -1.08785       -0.12006
C          1.92711       -0.88942        0.50376
C          1.61258       -0.87213        2.01049
O          0.25029       -1.40494       -1.23755
H          2.32331       -0.25504        2.57206
H          1.62892       -1.89627        2.40702
O         -1.28801        3.00703       -0.94737
C         -1.68962        0.10201        0.53609
C         -0.53729       -0.81406        0.97333
N         -1.24762       -2.02519        1.31633
C         -2.54827       -1.78760        1.51822
N         -2.85157       -0.51072        1.19578
H         -1.80189        0.02388       -0.55643
N         -3.39277       -2.68575        1.96264
H         -0.77716       -2.86392        1.64916
C         -4.20046       -0.05309        0.99186
H         -4.38347       -2.48747        2.05467
C          2.56728        0.42892        0.02678
O         -4.75906       -0.53892       -0.21313
H         -4.84011       -0.42614        1.79913
H         -4.21601        1.04165        1.01640
C         -4.54750        0.19071       -1.33330
O         -3.94146        1.23954       -1.36532
N         -5.07492       -0.45605       -2.39704
H         -5.77282       -1.18332       -2.25261
O         -5.20425        0.25399       -3.55823
H         -4.49585       -0.05664       -4.14185
H          3.53716        0.49421        0.53700
H          2.76483        0.33478       -1.04802
N          0.57632        1.77188       -0.55141
C          1.78022        1.70877        0.29460
C          2.48268        3.01899       -0.13668
C          2.06715        3.15638       -1.60404
O          1.01221        2.19816       -1.79697
H          1.51140        1.81615        1.34831
C          3.97383        3.14046        0.12793
H          1.99886        3.81847        0.44310
H          1.69634        4.16449       -1.83914
H          2.87122        2.88462       -2.29928
O          4.70998        2.32394       -0.75560
H          4.25665        4.20139        0.00653
H          4.16750        2.87158        1.18229
H          5.64325        2.40994       -0.53175
O          2.81765       -1.96539        0.30867
S          3.14451       -2.73398       -1.14896
O          2.07349       -3.72509       -1.28983
O          3.15127       -1.68766       -2.17793
O          4.45631       -3.30098       -0.83625
H         -3.06109       -3.61531        2.20367
H          1.10166        0.32939        4.38727
