59
ZTX_ketone_192_solv.log	Energy: -1435169.1076363
C          1.18998       -1.65539       -0.27836
N          1.24621       -1.48867        1.15382
C          0.57871       -0.53212        1.79577
C          0.06765       -2.52066       -0.90212
H          2.09318       -2.20152       -0.56927
N          0.49132       -0.53286        3.11176
H          0.84282       -1.31871        3.65077
H          1.82892       -2.12488        1.69129
N         -0.05503        0.41654        1.07444
C         -1.14899        0.83786       -0.94404
C         -2.18923        0.79312        0.18888
C         -1.34824        0.98168        1.46684
O         -1.36611        0.91946       -2.11776
H         -1.76868        0.42450        2.31262
H         -1.25150        2.03425        1.75664
O          0.39762       -3.41528       -1.65462
C          1.19688       -0.29912       -0.98331
C          0.25862        0.71662       -0.31762
N          1.00739        1.94226       -0.45818
C          2.30254        1.69712       -0.67849
N          2.49197        0.38168       -0.92995
H          0.90170       -0.42849       -2.03733
N          3.25239        2.60029       -0.67791
H          0.61009        2.83893       -0.17931
C          3.65685       -0.18019       -1.56016
H          4.22801        2.28407       -0.64738
C         -2.92034       -0.56081        0.17511
O          4.49040       -0.86711       -0.64654
H          3.33151       -0.93374       -2.28601
H          4.22031        0.60167       -2.08391
C          5.41420       -0.14115        0.01136
O          5.56102        1.06106       -0.10877
N          6.17326       -0.94810        0.77933
H          5.86409       -1.89502        0.99022
O          6.97272       -0.36112        1.71755
H          7.87315       -0.39034        1.36034
H         -3.66726       -0.51693        0.97777
H         -3.46226       -0.63619       -0.77849
N         -1.23661       -2.07770       -0.82241
C         -2.05008       -1.80144        0.37350
C         -2.81827       -3.14017        0.49295
C         -2.96269       -3.57754       -0.96703
O         -2.08351       -2.71917       -1.71419
H         -1.41309       -1.71431        1.25670
C         -4.10386       -3.14806        1.30190
H         -2.12890       -3.83014        1.00087
H         -2.67002       -4.62658       -1.11843
H         -3.97384       -3.41319       -1.35998
O         -5.13691       -2.48228        0.61024
H         -4.37830       -4.20019        1.49599
H         -3.90627       -2.67758        2.28240
H         -5.92549       -2.50286        1.16370
O         -3.19583        1.75789       -0.00982
S         -2.79833        3.38517        0.03787
O         -3.75324        3.95128       -0.90694
O         -2.99445        3.77564        1.43620
O         -1.38638        3.42483       -0.39611
H          3.02661        3.55995       -0.43375
H          0.11732        0.27032        3.60696
