59
ZTX_ketone_111_solv.log	Energy: -1435165.7853314
C         -1.20019        1.54210        1.09283
N         -0.56701        1.32038        2.37084
C          0.33474        0.36202        2.57553
C         -0.50851        2.46693        0.06051
H         -2.13545        2.07529        1.28484
N          1.03105        0.31939        3.69518
H          0.95823        1.07316        4.37203
H         -0.82827        1.91766        3.15060
N          0.56217       -0.54176        1.59893
C          0.60574       -0.78038       -0.72683
C          2.05068       -0.77189       -0.19789
C          1.89195       -1.08085        1.30436
O          0.25501       -0.77610       -1.87047
H          2.65620       -0.57334        1.90450
H          1.93923       -2.15434        1.52042
O         -1.16222        3.37172       -0.41777
C         -1.52152        0.21449        0.41183
C         -0.35202       -0.77426        0.48686
N         -1.04238       -2.03463        0.59441
C         -2.30874       -1.86646        0.97425
N         -2.60783       -0.54722        1.04833
H         -1.76438        0.38989       -0.64787
N         -3.13213       -2.85345        1.23386
H         -0.55783       -2.92341        0.45959
C         -3.94899       -0.05397        1.19230
H         -4.10989       -2.69402        1.45242
C          2.68731        0.60740       -0.43884
O         -4.70889       -0.18395        0.00447
H         -4.47155       -0.64406        1.95290
H         -3.91798        0.98985        1.52252
C         -4.65011        0.83291       -0.87501
O         -3.97782        1.83440       -0.72234
N         -5.46791        0.64056       -1.93482
H         -5.31783        1.22949       -2.75140
O         -5.97604       -0.60312       -2.19909
H         -6.90377       -0.57780       -1.92048
H          3.71286        0.55009       -0.05286
H          2.74861        0.75648       -1.52622
N          0.70135        2.07924       -0.47660
C          1.97607        1.79769        0.20461
C          2.68256        3.16403        0.03207
C          2.13271        3.66039       -1.30858
O          1.03722        2.78302       -1.62313
H          1.81326        1.64692        1.27459
C          4.19546        3.19779        0.16426
H          2.28673        3.80349        0.83426
H          1.77037        4.69697       -1.25190
H          2.85814        3.56399       -2.12608
O          4.81087        2.60755       -0.95916
H          4.50545        4.25267        0.27039
H          4.47949        2.68009        1.09844
H          5.76429        2.62315       -0.81942
O          2.85691       -1.68073       -0.91105
S          2.54057       -3.32318       -0.81532
O          3.34657       -3.79348        0.31373
O          1.08426       -3.39870       -0.57543
O          2.97422       -3.78483       -2.12788
H         -2.79490       -3.81086        1.19677
H          1.59503       -0.49201        3.92750
