59
ZTX_ketone_85_solv.log	Energy: -1435169.1128007
C          1.19233       -1.65234       -0.27385
N          1.24687       -1.48495        1.15834
C          0.57658       -0.52967        1.79928
C          0.07231       -2.51996       -0.89843
H          2.09695       -2.19676       -0.56357
N          0.48778       -0.53015        3.11519
H          0.83917       -1.31564        3.65479
H          1.83091       -2.11935        1.69650
N         -0.05813        0.41760        1.07698
C         -1.14965        0.83794       -0.94300
C         -2.19159        0.79105        0.18823
C         -1.35291        0.98037        1.46758
O         -1.36498        0.91966       -2.11703
H         -1.77370        0.42211        2.31247
H         -1.25842        2.03296        1.75800
O          0.40461       -3.41544       -1.64881
C          1.19728       -0.29631       -0.97924
C          0.25722        0.71837       -0.31446
N          1.00498        1.94486       -0.45380
C          2.30024        1.70151       -0.67472
N          2.49141        0.38616       -0.92556
H          0.90302       -0.42642       -2.03342
N          3.24888        2.60602       -0.67490
H          0.60612        2.84136       -0.17664
C          3.65616       -0.17378       -1.55748
H          4.22523        2.29236       -0.64766
C         -2.92063       -0.56399        0.17273
O          4.49057       -0.86306       -0.64651
H          3.33176       -0.92601       -2.28501
H          4.21941        0.60938       -2.07952
C          5.39726       -0.13393        0.03097
O          5.56255        1.06350       -0.10737
N          6.06073       -0.92086        0.90384
H          6.05024       -1.93176        0.77974
O          7.19409       -0.41083        1.47149
H          6.95987       -0.18916        2.38539
H         -3.66904       -0.52146        0.97408
H         -3.46071       -0.63996       -0.78186
N         -1.23258       -2.07786       -0.82207
C         -2.04883       -1.80333        0.37238
C         -2.81508       -3.14338        0.48997
C         -2.95545       -3.58099       -0.97037
O         -2.07673       -2.72053       -1.71560
H         -1.41359       -1.71537        1.25681
C         -4.10256       -3.15355        1.29588
H         -2.12577       -3.83225        0.99945
H         -2.66000       -4.62934       -1.12118
H         -3.96611       -3.41902       -1.36552
O         -5.13500       -2.48906        0.60209
H         -4.37583       -4.20619        1.48887
H         -3.90802       -2.68319        2.27705
H         -5.92475       -2.51081        1.15383
O         -3.19930        1.75442       -0.01151
S         -2.80418        3.38227        0.03712
O         -3.00327        3.77214        1.43518
O         -1.39156        3.42402       -0.39443
O         -3.75829        3.94724       -0.90917
H          3.02212        3.56578       -0.43201
H          0.11090        0.27212        3.60969
