59
ZTX_ketone_148_solv.log	Energy: -1435169.1267628
C          1.09844        1.66325        0.30615
N          1.15047        1.52968       -1.12919
C          0.52012        0.55870       -1.78672
C         -0.06561        2.44836        0.95774
H          1.97382        2.25018        0.60215
N          0.41274        0.59080       -3.10085
H          0.72061        1.40633       -3.62222
H          1.68748        2.21089       -1.65902
N         -0.05303       -0.43992       -1.08238
C         -1.10554       -0.95813        0.93648
C         -2.15733       -0.94768       -0.18807
C         -1.31799       -1.06459       -1.47571
O         -1.30835       -1.07666        2.10943
H         -1.77474       -0.51414       -2.30652
H         -1.16831       -2.10439       -1.78824
O          0.21607        3.34299        1.72829
C          1.18125        0.29390        0.98078
C          0.28873       -0.75313        0.30089
N          1.09937       -1.94230        0.41022
C          2.38249       -1.63691        0.62694
N          2.50852       -0.31818        0.90157
H          0.88975        0.38327        2.04006
N          3.37596       -2.49096        0.60105
H          0.74361       -2.85315        0.12082
C          3.64560        0.28989        1.54042
H          4.33526       -2.12723        0.57708
C         -2.96265        0.36251       -0.14690
O          4.44707        1.02748        0.63783
H          3.28450        1.01844        2.27488
H          4.24519       -0.46975        2.05697
C          5.39422        0.35173       -0.04005
O          5.62351       -0.83593        0.09367
N          6.01681        1.17612       -0.90737
H          5.94581        2.18513       -0.78882
O          7.17305        0.72916       -1.48124
H          6.94492        0.48703       -2.39164
H         -3.69532        0.28946       -0.96208
H         -3.51517        0.38331        0.80417
N         -1.34144        1.92175        0.88433
C         -2.16449        1.65678       -0.30748
C         -3.02991        2.93535       -0.33779
C         -3.15442        3.29639        1.14545
O         -2.20301        2.46065        1.82699
H         -1.54596        1.64853       -1.20882
C         -4.35630        2.82861       -1.06405
H         -2.43309        3.70772       -0.84519
H         -2.92260        4.35265        1.34272
H         -4.14243        3.05308        1.56135
O         -4.93408        4.11654       -1.07553
H         -4.18607        2.45338       -2.09020
H         -5.01532        2.10771       -0.54872
H         -5.82372        4.03934       -1.43815
O         -3.10748       -1.96986       -0.00001
S         -2.62378       -3.57246       -0.08872
O         -3.54151       -4.21008        0.84730
O         -2.80752       -3.93950       -1.49489
O         -1.20912       -3.54635        0.33732
H          3.19743       -3.45623        0.34086
H          0.08039       -0.21856       -3.61522
