59
ZTX_ketone_103_solv.log	Energy: -1435169.9693637
C         -1.47759        1.33426       -0.81463
N         -1.63739        1.32092        0.61860
C         -0.96130        0.47964        1.40021
C         -0.40355        2.24160       -1.45877
H         -2.39912        1.75297       -1.22918
N         -1.04958        0.57069        2.71350
H         -1.57080        1.33292        3.13695
H         -2.48771        1.75146        1.00462
N         -0.13433       -0.42465        0.83359
C          1.19890       -0.83932       -1.03689
C          2.10469       -0.58297        0.18454
C          1.16636       -0.79618        1.39088
O          1.54474       -0.96721       -2.17489
H          1.42434       -0.13811        2.22945
H          1.16596       -1.83237        1.74839
O         -0.75099        2.94364       -2.38925
C         -1.29404       -0.08396       -1.35525
C         -0.26448       -0.87931       -0.54728
N         -0.80955       -2.21416       -0.62801
C         -2.13178       -2.16740       -0.83233
N         -2.49083       -0.92503       -1.21653
H         -0.98767       -0.04593       -2.41234
N         -2.93069       -3.20079       -0.71075
H         -0.29031       -3.01629       -0.26896
C         -3.81365       -0.45143       -1.50500
H         -3.93911       -3.07820       -0.72905
C          2.65395        0.85220        0.14426
O         -4.30263        0.35447       -0.44543
H         -3.78268        0.20702       -2.38012
H         -4.48705       -1.29098       -1.71181
C         -4.68579       -0.28191        0.67350
O         -4.89482       -1.47480        0.74785
N         -4.87135        0.57678        1.70987
H         -4.95581        0.16267        2.63609
O         -4.24701        1.79820        1.70405
H         -4.91124        2.45642        1.44742
H          3.27947        0.96004        1.03986
H          3.30383        0.93610       -0.73930
N          0.92171        2.03710       -1.16148
C          1.61584        1.97440        0.13174
C          2.21928        3.39572        0.18403
C          2.49555        3.69557       -1.28982
O          1.78670        2.68508       -2.02955
H          0.89869        1.88244        0.95044
C          3.42155        3.57285        1.09772
H          1.41440        4.05747        0.54004
H          2.13780        4.69030       -1.59085
H          3.55789        3.59221       -1.55363
O          3.15231        3.15562        2.41861
H          4.26853        2.96960        0.73825
H          3.74204        4.62910        1.06357
H          2.44313        3.70772        2.77041
O          3.24037       -1.41511        0.15382
S          3.05429       -3.07305        0.31164
O          3.13469       -3.32215        1.75284
O          1.71966       -3.34376       -0.26233
O          4.17760       -3.57181       -0.47165
H         -2.55898       -4.06773       -0.33317
H         -0.66881       -0.15585        3.31107
