59
ZTX_ketone_124_solv.log	Energy: -1435166.6665429
C         -1.55499        1.15152       -0.45101
N         -1.61827        1.05825        0.98817
C         -0.79933        0.28288        1.69652
C         -0.61726        2.18795       -1.11214
H         -2.54582        1.48358       -0.77579
N         -0.76769        0.35312        3.01297
H         -1.29125        1.07392        3.50097
H         -2.39423        1.51678        1.46006
N          0.04382       -0.54100        1.04048
C          1.27279       -0.78551       -0.92959
C          2.23819       -0.48169        0.23058
C          1.41087       -0.80792        1.48997
O          1.54428       -0.85874       -2.09237
H          1.67360       -0.15279        2.32871
H          1.52643       -1.84864        1.81358
O         -1.09667        2.92099       -1.95554
C         -1.27313       -0.21341       -1.07428
C         -0.14715       -0.95895       -0.34462
N         -0.58797       -2.32841       -0.44554
C         -1.89841       -2.39299       -0.69249
N         -2.38593       -1.16663       -0.97688
H         -0.99433       -0.08538       -2.13219
N         -2.60143       -3.50014       -0.66879
H          0.01019       -3.10268       -0.15604
C         -3.69940       -0.93928       -1.52650
H         -3.59852       -3.49876       -0.85762
C          2.66233        0.99669        0.18983
O         -4.69728       -0.98213       -0.52678
H         -3.70093        0.02181       -2.05382
H         -3.95933       -1.73356       -2.23714
C         -5.03764        0.16801        0.09392
O         -4.61668        1.26657       -0.20094
N         -5.95513       -0.09237        1.05149
H         -6.06634       -1.03969        1.40709
O         -6.22814        0.90619        1.94376
H         -7.08296        1.27803        1.67828
H          3.36034        1.14232        1.02388
H          3.22250        1.15441       -0.74293
N          0.74357        2.06593       -0.94475
C          1.53699        2.02659        0.29311
C          1.99540        3.50304        0.36602
C          2.11486        3.89086       -1.11056
O          1.47814        2.82758       -1.84050
H          0.88940        1.84255        1.15345
C          3.20906        3.82396        1.22144
H          1.15091        4.05165        0.80758
H          1.61200        4.84299       -1.33327
H          3.15580        3.93024       -1.45498
O          4.39327        3.37237        0.60242
H          3.24037        4.91755        1.37378
H          3.07151        3.36137        2.21568
H          5.12948        3.56317        1.19422
O          3.43459       -1.21274        0.09544
S          3.40067       -2.88375        0.21333
O          3.60807       -3.16075        1.63658
O          2.05562       -3.25492       -0.27318
O          4.50195       -3.26351       -0.66278
H         -2.15065       -4.37931       -0.43430
H         -0.26192       -0.33847        3.55741
