59
ZTX_ketone_63_solv.log	Energy: -1435166.3454338
C         -1.22055        1.35007        1.20344
N         -0.52520        1.11088        2.44476
C          0.42070        0.18329        2.58007
C         -0.60675        2.32951        0.17401
H         -2.16559        1.84094        1.45261
N          1.16862        0.14064        3.66609
H          1.09852        0.87547        4.36375
H         -0.76691        1.68044        3.25118
N          0.63439       -0.68665        1.56968
C          0.59176       -0.84069       -0.76448
C          2.05645       -0.79784       -0.29249
C          1.96766       -1.16993        1.20167
O          0.19551       -0.81172       -1.89265
H          2.73915       -0.66114        1.79118
H          2.05647       -2.24885        1.37269
O         -1.31057        3.22159       -0.25266
C         -1.52069        0.03489        0.48969
C         -0.31577       -0.91326        0.48602
N         -0.95892       -2.20003        0.57661
C         -2.21454       -2.08852        1.01133
N         -2.55555       -0.78350        1.13959
H         -1.81008        0.23610       -0.55385
N         -2.99401       -3.11005        1.27266
H         -0.44909       -3.06653        0.39804
C         -3.90999       -0.33924        1.31945
H         -3.96693       -2.98892        1.53337
C          2.63831        0.61115       -0.49907
O         -4.68509       -0.47203        0.14298
H         -4.39866       -0.95460        2.08236
H         -3.90419        0.70012        1.66488
C         -4.71236        0.58315       -0.70242
O         -4.08890        1.60936       -0.54016
N         -5.57133        0.32691       -1.71553
H         -5.84500       -0.63385       -1.91283
O         -5.51067        1.15162       -2.80499
H         -6.28981        1.72518       -2.74992
H          3.67269        0.56861       -0.13161
H          2.67079        0.79935       -1.58242
N          0.59167        1.99500       -0.42394
C          1.90335        1.75603        0.19914
C          2.55815        3.13966        0.00554
C          1.93657        3.62521       -1.30711
O          0.84665        2.72467       -1.57462
H          1.79431        1.58102        1.27220
C          4.07339        3.17019        0.02709
H          2.19945        3.77553        0.82859
H          1.55368        4.65311       -1.23732
H          2.62684        3.54708       -2.15901
O          4.46813        4.52319       -0.05283
H          4.43766        2.69709        0.95779
H          4.47841        2.59303       -0.82285
H          5.42727        4.54746       -0.14425
O          2.86411       -1.64827       -1.07210
S          2.61147       -3.30457       -1.02642
O          3.48221       -3.78362        0.04956
O          1.17064       -3.44410       -0.73004
O          3.00669       -3.70086       -2.37212
H         -2.62844       -4.05422        1.19237
H          1.77425       -0.65250        3.85217
