59
ZTX_ketone_317_solv.log	Energy: -1435152.8676662
C         -1.59861        1.09635        1.05905
N         -1.09440        1.05716        2.41040
C         -0.14498        0.21577        2.81572
C         -0.88905        1.96743       -0.00493
H         -2.59548        1.54659        1.09937
N          0.42656        0.36488        3.99485
H          0.21934        1.18047        4.56377
H         -1.47606        1.71690        3.08280
N          0.25425       -0.77209        1.98540
C          0.61248       -1.18539       -0.29451
C          1.97941       -0.96195        0.38709
C          1.64417       -1.21748        1.86852
O          0.37641       -1.36428       -1.45193
H          2.29655       -0.65430        2.54486
H          1.73110       -2.28975        2.09064
O         -1.58162        2.68378       -0.70049
C         -1.71191       -0.31199        0.48064
C         -0.48808       -1.17694        0.80298
N         -1.09426       -2.48103        0.94290
C         -2.41629       -2.39017        1.13400
N         -2.82396       -1.10610        1.01589
H         -1.81108       -0.25337       -0.61605
N         -3.17927       -3.41999        1.40555
H         -0.55727       -3.31723        1.16167
C         -4.18736       -0.70519        0.77204
H         -4.18310       -3.33076        1.52144
C          2.51146        0.46497        0.14828
O         -4.44803       -0.66259       -0.61499
H         -4.87481       -1.42442        1.22758
H         -4.36882        0.27727        1.22184
C         -4.53917        0.55814       -1.20168
O         -4.62829        1.60754       -0.60472
N         -4.47764        0.41077       -2.54377
H         -4.62960       -0.50435       -2.96304
O         -4.85947        1.47703       -3.30908
H         -4.03964        1.88630       -3.62441
H          3.44656        0.52746        0.72210
H          2.76509        0.54894       -0.91618
N          0.41947        1.68760       -0.32136
C          1.60324        1.62632        0.54822
C          2.21480        3.01836        0.27933
C          1.83660        3.26536       -1.18435
O          0.83810        2.27956       -1.50211
H          1.30602        1.58438        1.59912
C          3.69926        3.16938        0.59037
H          1.67032        3.73104        0.91630
H          1.42315        4.27026       -1.34943
H          2.67751        3.09692       -1.87321
O          4.11795        4.51538        0.51729
H          3.88656        2.83304        1.62147
H          4.30052        2.53312       -0.08204
H          4.15506        4.77175       -0.41186
O          2.96210       -1.91257        0.04418
S          3.39690       -2.37948       -1.51173
O          2.44604       -3.44128       -1.85446
O          3.30159       -1.17910       -2.35127
O          4.75896       -2.84680       -1.25452
H         -2.76434       -4.34273        1.49738
H          1.03103       -0.35537        4.37684
