59
ZTX_ketone_61_solv.log	Energy: -1435167.7003271
C          0.59437       -1.99096        0.83132
N          0.07642       -1.70863        2.14807
C         -0.53872       -0.56699        2.45234
C         -0.33711       -2.60348       -0.24349
H          1.35075       -2.77309        0.94662
N         -1.17688       -0.42838        3.59813
H         -1.29689       -1.22387        4.21831
H          0.18533       -2.41407        2.87132
N         -0.53786        0.43363        1.54808
C         -0.56634        0.85661       -0.74914
C         -1.94804        1.19485       -0.15775
C         -1.67114        1.33940        1.35201
O         -0.25988        0.84382       -1.90518
H         -2.53008        1.01901        1.95310
H         -1.41012        2.36547        1.63617
O          0.06018       -3.58697       -0.83556
C          1.24671       -0.74964        0.22523
C          0.38396        0.50484        0.41975
N          1.38576        1.52534        0.59459
C          2.57519        1.00101        0.89484
N          2.50990       -0.35267        0.85941
H          1.41103       -0.90839       -0.85298
N          3.64343        1.69954        1.19514
H          1.15732        2.51761        0.51779
C          3.63492       -1.23134        0.97926
H          4.57008        1.26137        1.13286
C         -2.94304        0.05914       -0.45192
O          4.32750       -1.40729       -0.24632
H          4.31151       -0.85905        1.75746
H          3.27836       -2.22408        1.26964
C          5.44990       -0.68856       -0.44320
O          5.85724        0.17784        0.30948
N          6.07179       -1.09923       -1.56576
H          5.57991       -1.67651       -2.24513
O          7.05817       -0.30022       -2.06916
H          7.89690       -0.71465       -1.81540
H         -3.89351        0.36187        0.00817
H         -3.09039        0.02702       -1.54158
N         -1.41420       -1.86901       -0.69184
C         -2.56420       -1.33397        0.05421
C         -3.62030       -2.41867       -0.25109
C         -3.22804       -2.88343       -1.65601
O         -1.92229       -2.32927       -1.89660
H         -2.36702       -1.34837        1.12904
C         -5.07884       -2.00374       -0.12168
H         -3.43833       -3.23868        0.46107
H         -3.18221       -3.97826       -1.74132
H         -3.89020       -2.48202       -2.43638
O         -5.94349       -3.07926       -0.41607
H         -5.26138       -1.60097        0.89097
H         -5.31764       -1.20943       -0.84423
H         -5.78723       -3.77304        0.23637
O         -2.49729        2.33555       -0.77476
S         -1.74672        3.82244       -0.58692
O         -0.31717        3.48798       -0.41861
O         -2.08262        4.48254       -1.84180
O         -2.35944        4.40104        0.61115
H          3.57798        2.71307        1.20009
H         -1.51806        0.47937        3.89774
