59
ZTX_ketone_233_solv.log	Energy: -1435167.2555923
C          0.91769       -1.81716        0.95564
N          0.36096       -1.55102        2.25975
C         -0.41925       -0.50167        2.51321
C          0.08852       -2.61561       -0.08198
H          1.77747       -2.47690        1.10491
N         -1.09040       -0.42026        3.64608
H         -1.09637       -1.20366        4.29287
H          0.55023       -2.20999        3.01013
N         -0.54943        0.45770        1.57310
C         -0.62590        0.76721       -0.74291
C         -2.04513        0.92371       -0.17084
C         -1.80597        1.17108        1.33262
O         -0.31023        0.74660       -1.89656
H         -2.61142        0.74935        1.94535
H         -1.70677        2.23561        1.57352
O          0.62890       -3.56158       -0.62086
C          1.38449       -0.52538        0.28984
C          0.35736        0.60580        0.43976
N          1.20809        1.76289        0.55928
C          2.46814        1.42334        0.83576
N          2.58788        0.07422        0.87899
H          1.55803       -0.70784       -0.78326
N          3.44174        2.27570        1.05002
H          0.84954        2.70745        0.41232
C          3.82041       -0.63615        1.04824
H          4.41499        1.96198        0.95487
C         -2.85724       -0.35846       -0.42353
O          4.49322       -0.86755       -0.17882
H          4.46223       -0.09334        1.75177
H          3.60817       -1.62551        1.46372
C          5.46751       -0.01389       -0.52733
O          5.78514        0.97329        0.11879
N          6.04365       -0.33642       -1.70105
H          6.90583        0.14031       -1.95707
O          5.85601       -1.57085       -2.25648
H          5.21278       -1.44892       -2.97153
H         -3.85658       -0.18180       -0.00608
H         -2.96643       -0.47021       -1.51174
N         -1.08826       -2.08305       -0.55699
C         -2.29053       -1.64755        0.17137
C         -3.17812       -2.90290       -0.00367
C         -2.75124       -3.42606       -1.37759
O         -1.54752       -2.70975       -1.70533
H         -2.07518       -1.54625        1.23782
C         -4.67589       -2.74543        0.19457
H         -2.83745       -3.61193        0.76475
H         -2.54532       -4.50606       -1.36671
H         -3.48065       -3.19426       -2.16372
O         -5.25710       -2.04788       -0.88481
H         -5.11451       -3.75470        0.28871
H         -4.85156       -2.22452        1.15345
H         -6.20270       -1.97244       -0.71473
O         -2.74973        1.94401       -0.83921
S         -2.22825        3.53102       -0.71415
O         -0.76731        3.41957       -0.52058
O         -2.64011        4.07969       -1.99986
O         -2.93571        4.06491        0.45194
H          3.23970        3.27003        1.00071
H         -1.55524        0.44014        3.91738
