59
ZTX_ketone_15_solv.log	Energy: -1435169.1071029
C          1.18989       -1.65546       -0.27828
N          1.24607       -1.48878        1.15390
C          0.57863       -0.53218        1.79585
C          0.06755       -2.52068       -0.90207
H          2.09309       -2.20161       -0.56918
N          0.49126       -0.53288        3.11184
H          0.84271       -1.31874        3.65087
H          1.82867       -2.12508        1.69139
N         -0.05507        0.41652        1.07452
C         -1.14903        0.83783       -0.94395
C         -2.18926        0.79314        0.18898
C         -1.34824        0.98174        1.46693
O         -1.36616        0.91932       -2.11767
H         -1.76868        0.42463        2.31275
H         -1.25145        2.03433        1.75665
O          0.39748       -3.41530       -1.65459
C          1.19685       -0.29917       -0.98320
C          0.25860        0.71661       -0.31753
N          1.00740        1.94222       -0.45808
C          2.30255        1.69703       -0.67829
N          2.49196        0.38159       -0.92973
H          0.90172       -0.42850       -2.03724
N          3.25244        2.60015       -0.67766
H          0.61016        2.83889       -0.17914
C          3.65682       -0.18029       -1.55995
H          4.22807        2.28392       -0.64721
C         -2.92039       -0.56079        0.17527
O          4.49050       -0.86705       -0.64632
H          3.33146       -0.93395       -2.28567
H          4.22020        0.60154       -2.08386
C          5.41451       -0.14106        0.01125
O          5.56119        1.06116       -0.10885
N          6.17398       -0.94803        0.77883
H          5.86465       -1.89484        0.99000
O          6.97341       -0.36098        1.71704
H          7.87381       -0.39002        1.35972
H         -3.66723       -0.51691        0.97801
H         -3.46240       -0.63614       -0.77827
N         -1.23667       -2.07763       -0.82236
C         -2.05015       -1.80145        0.37356
C         -2.81836       -3.14018        0.49289
C         -2.96278       -3.57742       -0.96713
O         -2.08359       -2.71901       -1.71420
H         -1.41317       -1.71439        1.25677
C         -4.10397       -3.14811        1.30182
H         -2.12903       -3.83021        1.00077
H         -2.67012       -4.62646       -1.11861
H         -3.97393       -3.41304       -1.36006
O         -5.13697       -2.48220        0.61021
H         -4.37846       -4.20025        1.49578
H         -3.90638       -2.67774        2.28238
H         -5.92559       -2.50289        1.16362
O         -3.19588        1.75789       -0.00964
S         -2.79845        3.38518        0.03771
O         -2.99443        3.77588        1.43599
O         -1.38655        3.42481       -0.39642
O         -3.75349        3.95110       -0.90709
H          3.02669        3.55980       -0.43343
H          0.11732        0.27034        3.60703
