59
ZTX_ketone_283_solv.log	Energy: -1435165.1917451
C         -1.20734        1.52970        1.07809
N         -0.57260        1.31429        2.35639
C          0.33561        0.36235        2.56224
C         -0.52143        2.45620        0.04340
H         -2.14663        2.05599        1.26906
N          1.03097        0.32462        3.68265
H          0.95211        1.07756        4.35968
H         -0.83868        1.91000        3.13569
N          0.57012       -0.54018        1.58633
C          0.61959       -0.77629       -0.73958
C          2.06332       -0.75850       -0.20740
C          1.90319       -1.07171        1.29390
O          0.27133       -0.77597       -1.88392
H          2.66376       -0.56179        1.89652
H          1.95495       -2.14541        1.50787
O         -1.18138        3.35354       -0.44028
C         -1.51845        0.19865        0.39887
C         -0.34025       -0.77936        0.47249
N         -1.01934       -2.04616        0.57847
C         -2.28543       -1.88924        0.96447
N         -2.59590       -0.57269        1.03888
H         -1.76545        0.37091       -0.66038
N         -3.09882       -2.88322        1.22874
H         -0.52629       -2.93061        0.44558
C         -3.93959       -0.08973        1.19193
H         -4.07632       -2.73180        1.45392
C          2.69300        0.62508       -0.44097
O         -4.70560       -0.22089        0.00813
H         -4.45414       -0.68537        1.95355
H         -3.91372        0.95327        1.52522
C         -4.65814        0.79947       -0.86782
O         -3.98201        1.79928       -0.72047
N         -5.41356        0.56826       -1.96526
H         -5.61385        1.36444       -2.56718
O         -6.37190       -0.40955       -1.95281
H         -6.01358       -1.14085       -2.47777
H          3.71494        0.57530       -0.04614
H          2.76421        0.77401       -1.52810
N          0.69088        2.07192       -0.49050
C          1.96746        1.81060        0.19552
C          2.65477        3.18136        0.00754
C          2.14694        3.61611       -1.36784
O          1.01819        2.76824       -1.64591
H          1.80483        1.66699        1.26667
C          4.16357        3.25854        0.22718
H          2.20554        3.84058        0.76589
H          1.82929        4.66827       -1.38325
H          2.87344        3.44127       -2.17382
O          4.95181        2.56793       -0.71552
H          4.44825        4.32394        0.27071
H          4.39120        2.82525        1.21292
H          4.95508        3.06410       -1.54179
O          2.87670       -1.65994       -0.92179
S          2.57463       -3.30500       -0.82597
O          1.11804       -3.39340       -0.59232
O          3.01820       -3.76319       -2.13647
O          3.37987       -3.76769        0.30676
H         -2.75318       -3.83754        1.19043
H          1.60091       -0.48248        3.91526
