59
ZTX_ketone_134_solv.log	Energy: -1435170.0960265
C         -1.19188        1.62007       -0.37639
N         -1.21230        1.51516        1.06221
C         -0.51136        0.60140        1.72999
C         -0.09779        2.47096       -1.06567
H         -2.11123        2.13809       -0.66849
N         -0.39208        0.66634        3.04187
H         -0.75269        1.46783        3.55116
H         -1.79250        2.16561        1.58507
N          0.12019       -0.36879        1.03661
C          1.17819       -0.85783       -0.98645
C          2.24103       -0.74928        0.12162
C          1.42858       -0.90050        1.42329
O          1.37259       -0.98592       -2.15990
H          1.85799       -0.30646        2.23879
H          1.35224       -1.94245        1.75444
O         -0.45731        3.31941       -1.85690
C         -1.19050        0.23439       -1.02301
C         -0.21841       -0.73452       -0.33471
N         -0.94745       -1.97818       -0.40365
C         -2.25253       -1.76362       -0.59804
N         -2.47052       -0.46642       -0.91131
H         -0.92105        0.32403       -2.08815
N         -3.18719       -2.67881       -0.52125
H         -0.53092       -2.85221       -0.08390
C         -3.66111        0.04391       -1.53677
H         -4.16705       -2.37647       -0.48080
C          2.94688        0.61550        0.04538
O         -4.48513        0.75889       -0.63601
H         -3.36803        0.76713       -2.30569
H         -4.22086       -0.77418       -2.00697
C         -5.38302        0.05075        0.07534
O         -5.51281       -1.15804        0.01491
N         -6.13840        0.88053        0.82141
H         -5.84520        1.84259        0.97935
O         -6.91601        0.32636        1.79684
H         -7.82053        0.32039        1.44866
H          3.68698        0.61510        0.85632
H          3.48723        0.65817       -0.91196
N          1.21393        2.04912       -0.99264
C          2.05848        1.85030        0.19495
C          2.82933        3.19035        0.20917
C          2.94107        3.52993       -1.27730
O          2.02933        2.64092       -1.94574
H          1.44846        1.80743        1.09991
C          4.15509        3.18699        0.95212
H          2.16460        3.92187        0.69469
H          2.66389        4.57163       -1.49233
H          3.94048        3.32402       -1.68700
O          4.01343        2.75893        2.28912
H          4.86482        2.49953        0.46822
H          4.59709        4.19749        0.89496
H          3.43261        3.38224        2.74272
O          3.26111       -1.70280       -0.06016
S          2.89763       -3.33421        0.06852
O          1.47968       -3.42156       -0.33728
O          3.84755       -3.92302       -0.86752
O          3.12733       -3.65530        1.47901
H         -2.93866       -3.62151       -0.23664
H         -0.00350       -0.11085        3.56642
