59
ZTX_ketone_161_solv.log	Energy: -1435165.7143538
C         -1.22246        1.34974        1.20056
N         -0.52797        1.11069        2.44254
C          0.41910        0.18430        2.57839
C         -0.60715        2.32969        0.17271
H         -2.16801        1.83972        1.44901
N          1.16650        0.14273        3.66479
H          1.09554        0.87782        4.36208
H         -0.77039        1.68030        3.24871
N          0.63421       -0.68581        1.56846
C          0.59332       -0.84094       -0.76570
C          2.05783       -0.79694       -0.29286
C          1.96814       -1.16813        1.20149
O          0.19781       -0.81425       -1.89422
H          2.73884       -0.65842        1.79122
H          2.05770       -2.24689        1.37317
O         -1.30658        3.22677       -0.25017
C         -1.52031        0.03454        0.48608
C         -0.31504       -0.91325        0.48432
N         -0.95800       -2.20020        0.57457
C         -2.21440       -2.08908        1.00747
N         -2.55619       -0.78436        1.13411
H         -1.80691        0.23551       -0.55811
N         -2.99345       -3.11091        1.26901
H         -0.44798       -3.06656        0.39585
C         -3.90859       -0.33843        1.32543
H         -3.96752       -2.99042        1.52564
C          2.63938        0.61220       -0.49996
O         -4.69727       -0.46882        0.15773
H         -4.39281       -0.95334        2.09140
H         -3.89843        0.70043        1.67233
C         -4.68260        0.56520       -0.71385
O         -4.05281        1.58823       -0.55451
N         -5.43510        0.25558       -1.79405
H         -6.12421       -0.49134       -1.73261
O         -5.75713        1.27798       -2.64311
H         -5.18469        1.17249       -3.41789
H          3.67323        0.57145       -0.13099
H          2.67384        0.79856       -1.58358
N          0.58830        1.98846       -0.42858
C          1.90090        1.75681        0.19503
C          2.55161        3.14249       -0.00265
C          1.93853        3.60804       -1.32699
O          0.84062        2.71485       -1.58251
H          1.79308        1.58536        1.26891
C          4.07397        3.18270        0.04493
H          2.17936        3.78345        0.81016
H          1.56699        4.64142       -1.27936
H          2.63249        3.50650       -2.17449
O          4.56291        4.50659        0.05113
H          4.41888        2.71013        0.97713
H          4.50069        2.60972       -0.79680
H          4.42437        4.88389       -0.82588
O          2.86615       -1.64766       -1.07146
S          2.61413       -3.30404       -1.02519
O          3.48499       -3.78238        0.05098
O          1.17332       -3.44418       -0.72895
O          3.00956       -3.70059       -2.37078
H         -2.62692       -4.05487        1.19052
H          1.77289       -0.64971        3.85139
