59
ZTX_ketone_175_solv.log	Energy: -1435166.1858769
C         -1.22101        1.34740        1.20278
N         -0.52561        1.10929        2.44435
C          0.42120        0.18265        2.58006
C         -0.60793        2.32740        0.17348
H         -2.16669        1.83715        1.45165
N          1.16868        0.14074        3.66643
H          1.09723        0.87523        4.36430
H         -0.76873        1.67813        3.25084
N          0.63637       -0.68695        1.56976
C          0.59498       -0.84140       -0.76445
C          2.05950       -0.79682       -0.29178
C          1.97027       -1.16892        1.20240
O          0.19925       -0.81364       -1.89279
H          2.74099       -0.65939        1.79226
H          2.06002       -2.24774        1.37356
O         -1.31191        3.21983       -0.25230
C         -1.51919        0.03176        0.48911
C         -0.31305       -0.91483        0.48573
N         -0.95463       -2.20241        0.57620
C         -2.21043       -2.09246        1.01080
N         -2.55308       -0.78787        1.13897
H         -1.80873        0.23247       -0.55450
N         -2.98868       -3.11490        1.27222
H         -0.44359       -3.06825        0.39777
C         -3.90797       -0.34506        1.31909
H         -3.96196       -2.99486        1.53209
C          2.63986        0.61290       -0.49800
O         -4.68306       -0.47829        0.14267
H         -4.39597       -0.96104        2.08195
H         -3.90318        0.69420        1.66481
C         -4.71167        0.57718       -0.70233
O         -4.08952        1.60411       -0.53972
N         -5.57037        0.32019       -1.71553
H         -5.84216       -0.64100       -1.91338
O         -5.51034        1.14520       -2.80484
H         -6.29037        1.71756       -2.75011
H          3.67388        0.57242       -0.12920
H          2.67381        0.80076       -1.58141
N          0.59020        1.99288       -0.42504
C          1.90239        1.75694        0.19872
C          2.55531        3.14153        0.00246
C          1.93496        3.62219       -1.31188
O          0.84392        2.72224       -1.57644
H          1.79331        1.58284        1.27194
C          4.07600        3.18559        0.02344
H          2.18915        3.77646        0.82443
H          1.55349        4.65095       -1.24730
H          2.62587        3.53984       -2.16294
O          4.55061        4.50403       -0.14348
H          4.44703        2.73617        0.96234
H          4.48872        2.60027       -0.81156
H          4.24029        5.02819        0.60533
O          2.86826       -1.64658       -1.07092
S          2.61746       -3.30316       -1.02474
O          3.01372       -3.69943       -2.37013
O          3.48818       -3.78089        0.05185
O          1.17663       -3.44435       -0.72905
H         -2.62201       -4.05867        1.19214
H          1.77475       -0.65197        3.85291
