59
ZTX_ketone_262_solv.log	Energy: -1435168.1332898
C         -1.53137        1.13053       -0.59036
N         -1.58619        1.12810        0.85159
C         -0.76127        0.40268        1.60432
C         -0.60382        2.12577       -1.32499
H         -2.52582        1.43535       -0.92855
N         -0.72483        0.56081        2.91305
H         -1.24818        1.31275        3.35172
H         -2.37213        1.59872        1.29447
N          0.08022       -0.46143        1.00005
C          1.30618       -0.80216       -0.95884
C          2.27226       -0.42629        0.18000
C          1.45094       -0.69192        1.45811
O          1.57364       -0.93127       -2.11760
H          1.70940        0.01017        2.25949
H          1.57626       -1.71313        1.83582
O         -1.08730        2.78178       -2.22771
C         -1.24394       -0.26876       -1.12795
C         -0.11001       -0.95975       -0.35866
N         -0.53780       -2.33667       -0.37956
C         -1.84677       -2.42877       -0.62646
N         -2.34832       -1.22265       -0.96782
H         -0.96823       -0.20621       -2.19263
N         -2.53696       -3.54166       -0.55474
H          0.07353       -3.09057       -0.06478
C         -3.67451       -1.03406       -1.50199
H         -3.53268       -3.56317       -0.75063
C          2.67880        1.05248        0.06514
O         -4.65648       -1.08440       -0.48678
H         -3.70751       -0.08257       -2.04598
H         -3.93046       -1.84635       -2.19341
C         -4.94389        0.05026        0.18716
O         -4.54420        1.15523       -0.11242
N         -5.71264       -0.24730        1.25912
H         -6.19893       -1.14147        1.29651
O         -6.35506        0.79220        1.87274
H         -5.88083        0.94643        2.70361
H          3.35351        1.24520        0.90938
H          3.25335        1.16866       -0.86575
N          0.75518        2.03735       -1.13802
C          1.54243        2.07465        0.10116
C          2.01431        3.54561        0.07690
C          2.16474        3.82215       -1.41896
O          1.49015        2.73766       -2.08217
H          0.89609        1.94413        0.97153
C          3.25146        3.85986        0.90207
H          1.17639        4.14281        0.46929
H          1.70858        4.77618       -1.71846
H          3.21191        3.79481       -1.75314
O          3.10522        3.46698        2.24943
H          4.12458        3.32115        0.50461
H          3.47271        4.93841        0.81603
H          2.37453        3.96890        2.63119
O          3.47637       -1.14959        0.08089
S          3.46033       -2.81394        0.27693
O          2.11445       -3.21907       -0.17925
O          4.55696       -3.22388       -0.59124
O          3.68264       -3.02211        1.70940
H         -2.07797       -4.40212       -0.27133
H         -0.21849       -0.09287        3.50206
