59
ZTX_ketone_72_solv.log	Energy: -1435166.3809445
C         -1.31605        1.31216        1.26047
N         -0.62354        1.07861        2.50495
C          0.37183        0.20225        2.62736
C         -0.74357        2.35065        0.26485
H         -2.28753        1.74858        1.51065
N          1.11042        0.17254        3.72000
H          1.00001        0.88864        4.43173
H         -0.90050        1.61820        3.32057
N          0.64278       -0.62888        1.59879
C          0.62939       -0.73718       -0.73794
C          2.08438       -0.62592       -0.25121
C          2.00361       -1.03112        1.23435
O          0.24124       -0.70428       -1.86898
H          2.74165       -0.49151        1.83916
H          2.15074       -2.10657        1.38578
O         -1.48950        3.21862       -0.14060
C         -1.53725        0.00179        0.50909
C         -0.28430       -0.88206        0.50146
N         -0.85916       -2.20206        0.55874
C         -2.12469       -2.16685        0.97503
N         -2.53996       -0.88473        1.11890
H         -1.81841        0.21552       -0.53406
N         -2.84901       -3.23475        1.20782
H         -0.30043       -3.03643        0.37396
C         -3.92286       -0.52077        1.26016
H         -3.83214       -3.17116        1.44936
C          2.58782        0.81682       -0.43167
O         -4.65460       -0.69268        0.06088
H         -4.39812       -1.16588        2.00710
H         -3.98706        0.51573        1.60714
C         -4.70704        0.35881       -0.78777
O         -4.13893        1.41421       -0.60966
N         -5.52186        0.06059       -1.82581
H         -5.74092       -0.91282       -2.02938
O         -5.46404        0.88459       -2.91622
H         -6.26870        1.42373       -2.88733
H          3.62594        0.83391       -0.07644
H          2.60241        1.02659       -1.51063
N          0.47450        2.09795       -0.33220
C          1.79399        1.90443        0.29221
C          2.36564        3.33672        0.16367
C          1.72991        3.83654       -1.13654
O          0.70208        2.88170       -1.45345
H          1.68609        1.69158        1.35853
C          3.87198        3.50657        0.25705
H          1.93755        3.90096        1.00485
H          1.28358        4.83518       -1.02461
H          2.43216        3.83558       -1.97963
O          4.50581        3.02163       -0.90573
H          4.08616        4.58082        0.40003
H          4.23031        2.98120        1.16088
H          5.45794        3.10829       -0.78418
O          2.94366       -1.41815       -1.03781
S          2.77788       -3.08530       -1.02417
O          3.66149       -3.53819        0.05286
O          1.34353       -3.30647       -0.74667
O          3.20709       -3.43692       -2.37193
H         -2.43147       -4.15573        1.11282
H          1.76616       -0.58401        3.88703
