59
ZTX_ketone_60_solv.log	Energy: -1435167.2756538
C          0.71620       -1.99177        0.89895
N          0.17079       -1.73266        2.20956
C         -0.53208       -0.63812        2.49565
C         -0.16580       -2.68377       -0.17075
H          1.52215       -2.72006        1.02825
N         -1.19951       -0.54089        3.62911
H         -1.27115       -1.34116        4.25092
H          0.31227       -2.42720        2.93789
N         -0.58804        0.35407        1.58423
C         -0.59672        0.78292       -0.71159
C         -2.01057        1.02067       -0.15291
C         -1.78292        1.17131        1.36476
O         -0.26216        0.79748       -1.86004
H         -2.62975        0.77914        1.94035
H         -1.61166        2.21163        1.66484
O          0.28519       -3.66844       -0.72064
C          1.28756       -0.71640        0.28235
C          0.34943        0.48495        0.47510
N          1.28548        1.56258        0.66922
C          2.51101        1.11303        0.94086
N          2.53207       -0.24150        0.89899
H          1.45270       -0.87047       -0.79633
N          3.53857        1.87764        1.22511
H          1.00227        2.53957        0.58255
C          3.71580       -1.04531        0.98542
H          4.48817        1.50185        1.12352
C         -2.91506       -0.18001       -0.48083
O          4.37072       -1.19864       -0.26291
H          4.39647       -0.61881        1.73173
H          3.43844       -2.05491        1.30234
C          5.41465       -0.38835       -0.52966
O          5.80292        0.50194        0.20438
N          5.93141       -0.68782       -1.73749
H          5.72062       -1.58056       -2.17937
O          7.13347       -0.13099       -2.06735
H          6.93595        0.58380       -2.69150
H         -3.90510        0.05515       -0.07109
H         -3.01204       -0.23003       -1.57496
N         -1.26806       -2.01425       -0.66040
C         -2.45991       -1.53557        0.05956
C         -3.42549       -2.71139       -0.21198
C         -3.01455       -3.15654       -1.61586
O         -1.73552       -2.54339       -1.85519
H         -2.27140       -1.50733        1.13582
C         -4.91756       -2.47172        0.00676
H         -3.13689       -3.49891        0.50053
H         -2.92058       -4.24869       -1.69832
H         -3.68811       -2.78592       -2.40120
O         -5.52954       -1.58931       -0.90687
H         -5.42537       -3.45136        0.00414
H         -5.05563       -2.04209        1.01065
H         -5.65408       -2.04809       -1.74559
O         -2.62243        2.12481       -0.77776
S         -1.98015        3.65815       -0.56938
O         -2.32347        4.29632       -1.83381
O         -2.66553        4.19225        0.60977
O         -0.53659        3.42239       -0.35889
H          3.40972        2.88527        1.22927
H         -1.61418        0.33973        3.91672
