59
ZTX_ketone_202_solv.log	Energy: -1435156.6795415
C          0.97070       -2.08575        0.31176
N          0.53491       -2.35181        1.66203
C         -0.14871       -1.47243        2.39241
C          0.01486       -2.37983       -0.87035
H          1.79962       -2.76888        0.10462
N         -0.71795       -1.83402        3.52538
H         -0.73276       -2.81112        3.80325
H          0.73492       -3.26412        2.06285
N         -0.28519       -0.21040        1.93384
C         -0.52483        1.02026       -0.04510
C         -1.89525        0.95213        0.66043
C         -1.49851        0.59048        2.10379
O         -0.25369        1.49988       -1.10537
H         -2.27941        0.01560        2.61454
H         -1.28885        1.50548        2.67415
O          0.44323       -3.05123       -1.78771
C          1.46428       -0.64649        0.17038
C          0.53297        0.35391        0.87466
N          1.47605        1.33128        1.36381
C          2.72398        0.85045        1.37530
N          2.75445       -0.37994        0.81586
H          1.53144       -0.38256       -0.89692
N          3.76113        1.48138        1.87121
H          1.19926        2.18996        1.83342
C          3.95318       -1.10826        0.51468
H          4.70355        1.21049        1.56806
C         -2.80370       -0.11573        0.02123
O          4.49909       -0.77285       -0.74867
H          4.68642       -0.94665        1.31359
H          3.72018       -2.17576        0.46593
C          5.48568        0.14651       -0.78509
O          5.91882        0.73322        0.18951
N          5.88600        0.33734       -2.05685
H          5.65159       -0.34230       -2.77813
O          7.02746        1.05703       -2.26241
H          6.74304        1.93121       -2.57048
H         -3.73481       -0.10441        0.60269
H         -3.04544        0.21437       -0.99617
N         -1.15139       -1.65539       -0.97604
C         -2.26381       -1.54217       -0.01831
C         -3.23187       -2.59814       -0.60473
C         -2.94394       -2.52131       -2.10679
O         -1.73887       -1.74553       -2.22874
H         -1.95621       -1.89379        0.96927
C         -4.69882       -2.50259       -0.22165
H         -2.87568       -3.56745       -0.22671
H         -2.78863       -3.51455       -2.55224
H         -3.72314       -1.98301       -2.66076
O         -5.31768       -1.40950       -0.86328
H         -5.18794       -3.45083       -0.50743
H         -4.77116       -2.41857        0.87806
H         -6.24164       -1.38805       -0.59014
O         -2.57405        2.18536        0.74301
S         -2.84313        3.26036       -0.52023
O         -4.01057        3.96787        0.00528
O         -1.62087        4.06829       -0.57998
O         -3.09857        2.44716       -1.71504
H          3.62742        2.40690        2.26829
H         -1.09945       -1.14067        4.16064
