59
ZTX_ketone_142_solv.log	Energy: -1435167.9277867
C         -1.54649        1.10183       -0.59593
N         -1.60301        1.10199        0.84596
C         -0.76965        0.38860        1.60099
C         -0.63070        2.10605       -1.33303
H         -2.54406        1.39471       -0.93576
N         -0.73584        0.54994        2.90936
H         -1.27071        1.29469        3.34642
H         -2.39367        1.56602        1.28765
N          0.08286       -0.46626        0.99885
C          1.31247       -0.79915       -0.95902
C          2.27416       -0.40795        0.17837
C          1.45613       -0.67981        1.45740
O          1.58102       -0.92805       -2.11758
H          1.70679        0.02685        2.25725
H          1.59321       -1.69873        1.83732
O         -1.12188        2.75110       -2.23969
C         -1.24312       -0.29550       -1.13007
C         -0.10171       -0.97137       -0.35820
N         -0.51435       -2.35295       -0.37395
C         -1.82282       -2.46005       -0.61908
N         -2.33637       -1.26194       -0.96877
H         -0.96742       -0.23190       -2.19463
N         -2.50083       -3.57990       -0.53763
H          0.10454       -3.09887       -0.05535
C         -3.67092       -1.08553       -1.48453
H         -3.49600       -3.61659       -0.73402
C          2.66315        1.07531        0.05966
O         -4.63490       -1.12244       -0.45147
H         -3.71603       -0.14236       -2.04192
H         -3.93290       -1.90894       -2.16036
C         -4.95915        0.03319        0.16791
O         -4.57023        1.13232       -0.16658
N         -5.81965       -0.22411        1.17766
H         -5.89487       -1.16632        1.55576
O         -6.06187        0.78648        2.06523
H         -6.93893        1.13464        1.84380
H          3.33666        1.27699        0.90271
H          3.23521        1.19646       -0.87214
N          0.72872        2.03853       -1.14351
C          1.51513        2.08433        0.09578
C          1.96938        3.56087        0.07289
C          2.11525        3.84114       -1.42282
O          1.45503        2.74859       -2.08705
H          0.87024        1.94535        0.96585
C          3.20339        3.88924        0.89728
H          1.12470        4.14749        0.46670
H          1.64611        4.78935       -1.72080
H          3.16248        3.82831       -1.75765
O          3.06270        3.49439        2.24464
H          4.08259        3.36104        0.49910
H          3.41195        4.97033        0.81138
H          2.32641        3.98773        2.62683
O          3.48703       -1.11673        0.08092
S          3.49129       -2.78076        0.27977
O          3.71762       -2.98380        1.71234
O          2.14984       -3.20264       -0.17413
O          4.59190       -3.17899       -0.58886
H         -2.03119       -4.43253       -0.24802
H         -0.22347       -0.09764        3.49996
