59
ZTX_ketone_301_solv.log	Energy: -1435162.7299940
C         -1.61633        0.88775        0.91523
N         -1.01863        0.80554        2.22302
C          0.05044        0.05711        2.49045
C         -1.12070        1.92186       -0.11945
H         -2.65837        1.19297        1.06096
N          0.65529        0.14762        3.65855
H          0.36916        0.85514        4.32912
H         -1.45161        1.32349        2.98331
N          0.53841       -0.76124        1.53187
C          0.77814       -0.81650       -0.79239
C          2.13957       -0.48869       -0.15664
C          1.97586       -0.94259        1.30755
O          0.49318       -0.76794       -1.95329
H          2.55878       -0.31714        1.99327
H          2.26733       -1.98832        1.45656
O         -1.98541        2.41627       -0.84007
C         -1.57865       -0.46660        0.21501
C         -0.21753       -1.14493        0.34299
N         -0.59428       -2.53480        0.34070
C         -1.89142       -2.69028        0.62252
N         -2.48753       -1.48212        0.75399
H         -1.80160       -0.32711       -0.85475
N         -2.47347       -3.85629        0.76282
H          0.09372       -3.27738        0.21071
C         -3.90651       -1.23639        0.73379
H         -3.46873       -3.93908        0.94185
C          2.43085        1.01871       -0.27070
O         -4.22278       -0.71162       -0.53968
H         -4.45454       -2.16804        0.91618
H         -4.17604       -0.51477        1.51563
C         -5.02311        0.37179       -0.58359
O         -5.84765        0.64062        0.26715
N         -4.83847        1.09266       -1.71212
H         -5.32325        1.98544       -1.77793
O         -3.69209        0.97232       -2.45142
H         -3.00614        1.47128       -1.95434
H          3.41548        1.15931        0.19501
H          2.53160        1.24835       -1.34183
N          0.19122        2.10107       -0.38170
C          1.44691        2.00306        0.37386
C          1.91046        3.47207        0.27780
C          1.43059        3.87133       -1.11878
O          0.44191        2.89288       -1.48747
H          1.24789        1.77888        1.42432
C          3.38660        3.74161        0.54457
H          1.33371        4.03135        1.02896
H          0.97439        4.87037       -1.14135
H          2.23185        3.81487       -1.87042
O          3.65307        5.12431        0.63509
H          3.66469        3.29578        1.51160
H          4.01327        3.27122       -0.23261
H          3.61571        5.49857       -0.25326
O          3.18960       -1.11155       -0.85851
S          3.27790       -2.78536       -0.89183
O          4.09965       -3.13743        0.26815
O          1.87006       -3.22114       -0.77623
O          3.89447       -3.02362       -2.19029
H         -1.92403       -4.70636        0.67708
H          1.36965       -0.52071        3.93032
