59
ZTX_ketone_137_solv.log	Energy: -1435168.0264752
C         -1.34957        1.45291       -0.75602
N         -1.53923        1.41892        0.67351
C         -0.97283        0.48912        1.44127
C         -0.17023        2.25360       -1.35368
H         -2.21321        1.97841       -1.17326
N         -1.08677        0.54258        2.75445
H         -1.53982        1.33797        3.19506
H         -2.34183        1.93545        1.05618
N         -0.22658       -0.47443        0.86056
C          1.09417       -0.98493       -0.99418
C          1.99591       -0.85715        0.25163
C          1.01341       -0.99613        1.43263
O          1.44937       -1.12787       -2.12739
H          1.32226       -0.39063        2.29340
H          0.89547       -2.03456        1.76334
O         -0.41803        3.02360       -2.26077
C         -1.30366        0.03742       -1.33537
C         -0.37584       -0.88057       -0.53274
N         -1.05473       -2.15001       -0.65414
C         -2.36105       -1.96005       -0.87538
N         -2.58232       -0.68016       -1.24012
H         -0.97540        0.07302       -2.38611
N         -3.26632       -2.90445       -0.78482
H         -0.62981       -3.00744       -0.29851
C         -3.84370       -0.06670       -1.53986
H         -4.25471       -2.67257       -0.81582
C          2.69975        0.50967        0.26062
O         -4.26124        0.77359       -0.47635
H         -3.73154        0.59647       -2.40430
H         -4.59950       -0.82650       -1.77013
C         -4.70951        0.16860        0.63572
O         -5.02695       -1.00056        0.70163
N         -4.82464        1.03489        1.67551
H         -4.95732        0.62902        2.59948
O         -4.10211        2.20033        1.67865
H         -4.70130        2.90752        1.39313
H          3.31654        0.52633        1.16952
H          3.37608        0.54017       -0.60641
N          1.11930        1.87645       -1.05442
C          1.78925        1.73867        0.24768
C          2.54541        3.08369        0.31478
C          2.85356        3.36392       -1.16016
O          2.06045        2.42748       -1.90909
H          1.05622        1.71663        1.05858
C          3.76023        3.13040        1.23382
H          1.82650        3.83196        0.67938
H          2.59019        4.38883       -1.45773
H          3.90354        3.16506       -1.42093
O          4.27402        4.43976        1.35114
H          3.46334        2.81021        2.24415
H          4.53913        2.43352        0.87852
H          4.70837        4.66877        0.52046
O          3.03525       -1.80706        0.22101
S          2.67007       -3.43819        0.33618
O          1.32887       -3.55265       -0.27291
O          3.75221       -4.03758       -0.43420
O          2.68962       -3.72478        1.77274
H         -2.99718       -3.81513       -0.42435
H         -0.79155       -0.23686        3.33364
