59
ZTX_ketone_280_solv.log	Energy: -1435167.6964679
C         -1.41394        1.28735       -0.53029
N         -1.50443        1.23508        0.90827
C         -0.76622        0.40817        1.64580
C         -0.36412        2.20460       -1.19814
H         -2.36017        1.71235       -0.87621
N         -0.73908        0.51575        2.95989
H         -1.19306        1.30064        3.41789
H         -2.25815        1.75381        1.35310
N         -0.00301       -0.51275        1.02131
C          1.21657       -0.92865       -0.92592
C          2.19493       -0.70144        0.24229
C          1.32196       -0.91336        1.49578
O          1.49364       -1.05646       -2.08247
H          1.64269       -0.27188        2.32539
H          1.32212       -1.95371        1.84059
O         -0.75013        2.96391       -2.06475
C         -1.26034       -0.11317       -1.11846
C         -0.22029       -0.94592       -0.35545
N         -0.79127       -2.26833       -0.42568
C         -2.09691       -2.21261       -0.69790
N         -2.46087       -0.95046       -1.00900
H         -0.95944       -0.04101       -2.17581
N         -2.90385       -3.24639       -0.67387
H         -0.26813       -3.09071       -0.12289
C         -3.73693       -0.61917       -1.59670
H         -3.89439       -3.15407       -0.87298
C          2.76755        0.72490        0.18467
O         -4.77501       -0.67455       -0.64099
H         -3.66619        0.37220       -2.05813
H         -4.01178       -1.35296       -2.36461
C         -4.95755        0.39651        0.16197
O         -4.40809        1.46812        0.02205
N         -5.81524        0.07202        1.15548
H         -6.41098       -0.74838        1.05954
O         -6.35224        1.10184        1.87695
H         -5.89869        1.09290        2.73319
H          3.44877        0.81010        1.04228
H          3.36742        0.80595       -0.73383
N          0.97545        1.93791       -1.01014
C          1.75008        1.86512        0.23827
C          2.37717        3.27439        0.25520
C          2.55799        3.57876       -1.23448
O          1.79330        2.57699       -1.92896
H          1.08261        1.77936        1.09890
C          3.63659        3.44012        1.08233
H          1.61508        3.95166        0.66876
H          2.18865        4.57683       -1.50916
H          3.60005        3.46811       -1.56675
O          3.97714        4.80995        1.05549
H          3.44829        3.09003        2.11420
H          4.45255        2.82512        0.66347
H          4.83432        4.91196        1.48386
O          3.31183       -1.55252        0.13843
S          3.10615       -3.21000        0.28425
O          1.73505       -3.45003       -0.21189
O          4.17095       -3.71527       -0.57308
O          3.26976       -3.48039        1.71419
H         -2.54397       -4.16125       -0.41880
H         -0.30855       -0.20313        3.53242
