59
ZTX_ketone_74_solv.log	Energy: -1435168.9195968
C         -1.44204        1.44223       -0.70108
N         -1.63318        1.35589        0.72627
C         -1.00993        0.44265        1.46971
C         -0.31638        2.33647       -1.27069
H         -2.33541        1.92455       -1.10714
N         -1.12582        0.45615        2.78378
H         -1.62282        1.21309        3.24406
H         -2.47286        1.80069        1.11878
N         -0.20734       -0.45881        0.86485
C          1.13936       -0.84316       -1.00148
C          2.03379       -0.68954        0.24565
C          1.06428       -0.91605        1.42390
O          1.49980       -0.93565       -2.13842
H          1.33516       -0.31219        2.29840
H          1.01133       -1.96709        1.73088
O         -0.61641        3.12437       -2.14673
C         -1.30929        0.04996       -1.32044
C         -0.33357       -0.83588       -0.53900
N         -0.94008       -2.13768       -0.69618
C         -2.25340       -2.01649       -0.92316
N         -2.54520       -0.74215       -1.25600
H         -0.97877        0.13637       -2.36744
N         -3.10482       -3.01281       -0.86536
H         -0.46921       -2.97903       -0.36122
C         -3.83696       -0.19524       -1.55628
H         -4.10467       -2.83154       -0.88053
C          2.65656        0.71643        0.27892
O         -4.32339        0.57484       -0.46964
H         -3.75102        0.50570       -2.39340
H         -4.53964       -0.99057       -1.82967
C         -4.76959       -0.10036        0.60223
O         -5.04181       -1.28317        0.60508
N         -4.93752        0.70923        1.67894
H         -5.07462        0.25661        2.58030
O         -4.26517        1.90219        1.74932
H         -4.89364        2.59740        1.49977
H          3.29039        0.75607        1.17388
H          3.31375        0.80676       -0.59770
N          0.99495        2.03306       -0.98660
C          1.67473        1.88717        0.31020
C          2.31800        3.28905        0.43110
C          2.62188        3.64420       -1.02647
O          1.89697        2.68353       -1.81477
H          0.94595        1.78866        1.11872
C          3.47866        3.45790        1.39602
H          1.51607        3.94810        0.79440
H          2.28962        4.65954       -1.28654
H          3.68314        3.52423       -1.27842
O          4.64506        2.84171        0.89683
H          3.64223        4.54009        1.54546
H          3.18689        3.03565        2.37480
H          5.34403        2.95580        1.55056
O          3.12809       -1.57500        0.19217
S          2.86226       -3.22766        0.25926
O          3.97386       -3.73762       -0.53378
O          2.90839       -3.55568        1.68642
O          1.52612       -3.40570       -0.34602
H         -2.78580       -3.91552       -0.52579
H         -0.78211       -0.31744        3.34338
