59
ZTX_ketone_87_solv.log	Energy: -1435167.9345701
C          0.71830       -1.98536        0.91096
N          0.17605       -1.72141        2.22201
C         -0.52843       -0.62708        2.50476
C         -0.16556       -2.68679       -0.15122
H          1.52591       -2.71156        1.04147
N         -1.19488       -0.52653        3.63843
H         -1.26435       -1.32430        4.26369
H          0.31998       -2.41288        2.95279
N         -0.58755        0.36138        1.58932
C         -0.59616        0.78493       -0.70732
C         -2.01056        1.02106       -0.15052
C         -1.78544        1.17369        1.36721
O         -0.26112        0.79526       -1.85568
H         -2.63123        0.77824        1.94228
H         -1.61914        2.21499        1.66662
O          0.28539       -3.67606       -0.69292
C          1.28715       -0.71201        0.28803
C          0.34970        0.49012        0.47996
N          1.28598        1.56805        0.67110
C          2.51266        1.11914        0.93846
N          2.53371       -0.23542        0.89929
H          1.44895       -0.86954       -0.79065
N          3.54130        1.88444        1.21705
H          1.00292        2.54479        0.58163
C          3.71785       -1.03883        0.98359
H          4.49043        1.50870        1.11121
C         -2.91063       -0.18225       -0.48068
O          4.36653       -1.19746       -0.26733
H          4.40214       -0.60905        1.72464
H          3.44247       -2.04708        1.30648
C          5.40765       -0.38675       -0.54362
O          5.79966        0.50635        0.18496
N          5.91677       -0.68940       -1.75396
H          5.70396       -1.58379       -2.19155
O          7.11691       -0.13351       -2.09254
H          6.91568        0.58001       -2.71694
H         -3.90496        0.05532       -0.08178
H         -2.99653       -0.24039       -1.57506
N         -1.27211       -2.02678       -0.64424
C         -2.46041       -1.53420        0.07226
C         -3.43697       -2.71040       -0.17633
C         -2.99261       -3.23575       -1.54533
O         -1.74803       -2.57285       -1.82624
H         -2.26826       -1.49303        1.14725
C         -4.92465       -2.43138       -0.04349
H         -3.19287       -3.46335        0.58672
H         -2.83828       -4.32450       -1.54273
H         -3.68353       -2.95986       -2.35150
O         -5.38908       -1.66335       -1.13149
H         -5.45118       -3.40127        0.00348
H         -5.10333       -1.91788        0.91869
H         -6.32401       -1.47876       -0.98886
O         -2.62394        2.12330       -0.77720
S         -1.98357        3.65773       -0.57075
O         -0.53999        3.42372       -0.35853
O         -2.32648        4.29360       -1.83644
O         -2.67068        4.19292        0.60693
H          3.41234        2.89207        1.21918
H         -1.60961        0.35492        3.92344
