59
ZTX_ketone_276_solv.log	Energy: -1435166.1468960
C         -1.41931        1.44050       -0.48551
N         -1.53826        1.30428        0.94615
C         -0.81446        0.43096        1.64537
C         -0.34676        2.38520       -1.07957
H         -2.34750        1.90270       -0.83397
N         -0.79705        0.46751        2.96324
H         -1.24711        1.23079        3.46012
H         -2.26312        1.83600        1.42202
N         -0.05500       -0.46243        0.97805
C          1.16620       -0.84362       -0.97339
C          2.14205       -0.67491        0.20572
C          1.25876       -0.90467        1.44738
O          1.44749       -0.93996       -2.13214
H          1.58723       -0.29345        2.29655
H          1.23621       -1.95398        1.76294
O         -0.71610        3.22819       -1.87236
C         -1.27653        0.06957       -1.14860
C         -0.27476       -0.83361       -0.41623
N         -0.90316       -2.12875       -0.54077
C         -2.21704       -1.99929       -0.75927
N         -2.50325       -0.72554       -1.09540
H         -0.96512        0.19438       -2.19803
N         -3.09025       -2.97669       -0.68789
H         -0.44206       -2.97009       -0.19494
C         -3.75850       -0.22250       -1.57426
H         -4.08183       -2.73786       -0.61641
C          2.74843        0.73895        0.19124
O         -4.43877        0.50054       -0.56542
H         -3.57024        0.49754       -2.37789
H         -4.37715       -1.04019       -1.96281
C         -5.11060       -0.22227        0.34413
O         -5.33520       -1.41665        0.24096
N         -5.48516        0.51034        1.41113
H         -6.18750        0.12661        2.04007
O         -5.36649        1.87209        1.40058
H         -4.59842        2.07843        1.95550
H          3.45563        0.78030        1.02931
H          3.32732        0.84389       -0.73748
N          0.98543        2.06368       -0.92485
C          1.75933        1.89671        0.31657
C          2.39364        3.30385        0.43140
C          2.56967        3.71469       -1.03298
O          1.81517        2.75586       -1.79435
H          1.08965        1.76962        1.17105
C          3.63251        3.45272        1.29778
H          1.61914        3.93896        0.88531
H          2.18665        4.72620       -1.23102
H          3.61054        3.63787       -1.37137
O          4.75607        2.87478        0.67100
H          3.79613        4.53039        1.47628
H          3.43425        2.98702        2.28037
H          5.51281        2.98448        1.25747
O          3.23908       -1.54907        0.08207
S          2.98822       -3.20385        0.17331
O          1.60879       -3.38846       -0.32307
O          4.03558       -3.71080       -0.70466
O          3.14981       -3.52615        1.59312
H         -2.78335       -3.88697       -0.35758
H         -0.37594       -0.28455        3.49944
