59
ZTX_ketone_293_solv.log	Energy: -1435166.3414428
C         -1.52814        1.11701       -0.59831
N         -1.57934        1.12763        0.84378
C         -0.75164        0.41048        1.60113
C         -0.60651        2.10805       -1.34653
H         -2.52415        1.41707       -0.93632
N         -0.71080        0.58106        2.90812
H         -1.23357        1.33653        3.34151
H         -2.36317        1.60386        1.28441
N          0.08949       -0.45826        1.00227
C          1.30570       -0.81931       -0.95879
C          2.27711       -0.42761        0.16989
C          1.46345       -0.67932        1.45558
O          1.56692       -0.95810       -2.11781
H          1.72462        0.03296        2.24744
H          1.59397       -1.69545        1.84498
O         -1.09545        2.74470       -2.26071
C         -1.24211       -0.28720       -1.12354
C         -0.10694       -0.97147       -0.34990
N         -0.53610       -2.34783       -0.35410
C         -1.84491       -2.44223       -0.60116
N         -2.34648       -1.23917       -0.95312
H         -0.96818       -0.23458       -2.18925
N         -2.53457       -3.55481       -0.52064
H          0.07542       -3.09940       -0.03451
C         -3.67256       -1.05492       -1.48900
H         -3.53003       -3.57898       -0.71755
C          2.67854        1.05053        0.03108
O         -4.65479       -1.09360       -0.47355
H         -3.70447       -0.10899       -2.04272
H         -3.92917       -1.87404       -2.17208
C         -4.94516        0.04946        0.18468
O         -4.54274        1.15038       -0.12586
N         -5.72096       -0.23431        1.25540
H         -6.20937       -1.12703        1.29937
O         -6.36678        0.81346        1.85128
H         -5.89952        0.97648        2.68440
H          3.38055        1.24491        0.85307
H          3.23239        1.15804       -0.91324
N          0.75139        2.03891       -1.15559
C          1.54055        2.07177        0.08091
C          2.00581        3.54387        0.05903
C          2.20861        3.79201       -1.43299
O          1.48052        2.74554       -2.10189
H          0.89855        1.93854        0.95411
C          3.20638        3.89940        0.92268
H          1.14948        4.13946        0.40980
H          1.82075        4.76871       -1.75411
H          3.26122        3.69655       -1.73811
O          2.95046        3.72684        2.29976
H          4.09771        3.33314        0.60030
H          3.43597        4.96469        0.77042
H          2.98387        2.78572        2.50883
O          3.48265       -1.14827        0.07323
S          3.47014       -2.81099        0.28756
O          2.12171       -3.22157       -0.15582
O          4.56189       -3.22904       -0.58273
O          3.70130       -3.00266        1.72087
H         -2.07543       -4.41242       -0.22884
H         -0.20267       -0.06717        3.50157
