59
ZTX_ketone_165_solv.log	Energy: -1435168.9206761
C          1.44181        1.44269        0.70124
N          1.63303        1.35644       -0.72610
C          1.00993        0.44309       -1.46961
C          0.31593        2.33677        1.27070
H          2.33505        1.92511        1.10746
N          1.12578        0.45680       -2.78367
H          1.62254        1.21393       -3.24388
H          2.47256        1.80143       -1.11874
N          0.20758       -0.45864       -0.86481
C         -1.13927       -0.84321        1.00142
C         -2.03359       -0.68981       -0.24580
C         -1.06391       -0.91622       -1.42396
O         -1.49980       -0.93592        2.13832
H         -1.33485       -0.31250       -2.29854
H         -1.01058       -1.96725       -1.73088
O          0.61566        3.12500        2.14650
C          1.30918        0.05040        1.32059
C          0.33369       -0.83561        0.53908
N          0.94035       -2.13732        0.69644
C          2.25362       -2.01594        0.92354
N          2.54521       -0.74158        1.25643
H          0.97848        0.13680        2.36754
N          3.10517       -3.01217        0.86586
H          0.46971       -2.97871        0.36128
C          3.83693       -0.19437        1.55636
H          4.10500       -2.83079        0.88105
C         -2.65657        0.71605       -0.27937
O          4.32318        0.57532        0.46936
H          3.75096        0.50690        2.39319
H          4.53973       -0.98948        1.83007
C          4.76947       -0.10029       -0.60226
O          5.04212       -1.28303       -0.60454
N          4.93683        0.70877       -1.67936
H          5.07455        0.25605       -2.58057
O          4.26464        1.90179       -1.75001
H          4.89345        2.59705       -1.50144
H         -3.29008        0.75555       -1.17454
H         -3.31409        0.80634        0.59701
N         -0.99536        2.03287        0.98657
C         -1.67495        1.88697       -0.31036
C         -2.31844        3.28877       -0.43125
C         -2.62212        3.64409        1.02635
O         -1.89769        2.68308        1.81465
H         -0.94610        1.78864       -1.11884
C         -3.47934        3.45726       -1.39595
H         -1.51671        3.94794       -0.79478
H         -2.28932        4.65927        1.28638
H         -3.68343        3.52467        1.27837
O         -4.64541        2.84067       -0.89649
H         -3.64330        4.53939       -1.54536
H         -3.18764        3.03509       -2.37479
H         -5.34457        2.95442       -1.55008
O         -3.12774       -1.57543       -0.19225
S         -2.86159       -3.22805       -0.25928
O         -2.90789       -3.55621       -1.68639
O         -1.52530       -3.40569        0.34580
O         -3.97291       -3.73826        0.53398
H          2.78626       -3.91499        0.52648
H          0.78234       -0.31687       -3.34332
