59
ZTX_ketone_158_solv.log	Energy: -1435163.3924872
C         -1.03088        1.59355        1.11755
N         -0.36942        1.36039        2.37826
C          0.49682        0.36699        2.56931
C         -0.32856        2.45227        0.03699
H         -1.92641        2.18458        1.33147
N          1.24064        0.32202        3.65783
H          1.23211        1.09791        4.31349
H         -0.56482        1.99198        3.15024
N          0.63539       -0.56939        1.60709
C          0.57536       -0.86867       -0.70956
C          2.03843       -0.92812       -0.23491
C          1.91816       -1.19580        1.27915
O          0.18224       -0.86790       -1.83907
H          2.73239       -0.72284        1.84044
H          1.90766       -2.26557        1.51766
O         -0.95993        3.36614       -0.45424
C         -1.44617        0.27463        0.46810
C         -0.33447       -0.77874        0.53871
N         -1.09221       -1.99180        0.71492
C         -2.34387       -1.74219        1.09358
N         -2.57170       -0.40248        1.12843
H         -1.70416        0.44636       -0.58951
N         -3.21721       -2.67248        1.39133
H         -0.65939       -2.91132        0.61423
C         -3.88589        0.15642        1.04613
H         -4.17642       -2.45023        1.63567
C          2.74231        0.40837       -0.52745
O         -4.30235        0.07228       -0.31017
H         -4.57942       -0.38992        1.69905
H         -3.86602        1.20250        1.37394
C         -5.41222        0.74774       -0.62838
O         -6.09351        1.35682        0.17333
N         -5.72921        0.62780       -1.94346
H         -6.39594        1.30439       -2.30985
O         -4.76094        0.24344       -2.83675
H         -4.97555       -0.66774       -3.08542
H          3.77239        0.29274       -0.16385
H          2.78031        0.53025       -1.62009
N          0.84080        1.98966       -0.52910
C          2.12476        1.65535        0.10725
C          2.91144        2.95716       -0.15538
C          2.32753        3.44297       -1.48576
O          1.16147        2.63182       -1.71448
H          2.00217        1.54912        1.18765
C          4.42291        2.84064       -0.14247
H          2.62601        3.66224        0.63931
H          2.03690        4.50262       -1.45617
H          3.00275        3.27021       -2.33564
O          4.94392        4.14600       -0.27481
H          4.74747        2.37029        0.80411
H          4.76302        2.19527       -0.97181
H          5.90192        4.07777       -0.35448
O          2.76555       -1.89427       -0.95645
S          2.35894       -3.51449       -0.81358
O          3.18489       -4.00881        0.29034
O          0.91246       -3.49941       -0.51085
O          2.70926       -4.02427       -2.13307
H         -2.93963       -3.64936        1.36356
H          1.78127       -0.50543        3.88865
