59
ZTX_ketone_44_solv.log	Energy: -1435168.5872804
C          0.86810       -1.87203        0.81397
N          0.27054       -1.66473        2.11050
C         -0.50418       -0.61794        2.39076
C          0.07111       -2.60996       -0.29199
H          1.71779       -2.54634        0.95773
N         -1.19718       -0.57246        3.51212
H         -1.23079       -1.38142        4.12571
H          0.43420       -2.35755        2.83615
N         -0.60626        0.37922        1.48760
C         -0.61701        0.78764       -0.81391
C         -2.05120        0.93044       -0.27295
C         -1.85382        1.10684        1.24668
O         -0.27150        0.81350       -1.95877
H         -2.67668        0.65560        1.81376
H         -1.76247        2.15789        1.54316
O          0.63224       -3.51911       -0.87151
C          1.36603       -0.55086        0.23112
C          0.33236        0.57325        0.38817
N          1.17813        1.72358        0.58271
C          2.41825        1.36949        0.92241
N          2.53799        0.01945        0.90726
H          1.59039       -0.68218       -0.83981
N          3.37475        2.20878        1.23959
H          0.82071        2.67456        0.48160
C          3.76414       -0.69429        1.10635
H          4.35288        1.89925        1.19253
C         -2.86450       -0.33365       -0.59620
O          4.50980       -0.84873       -0.09075
H          4.36005       -0.19111        1.87676
H          3.53734       -1.70795        1.44860
C          5.50767        0.01747       -0.32223
O          5.78561        0.96133        0.40217
N          6.15664       -0.23670       -1.47475
H          7.03554        0.24755       -1.64526
O          6.00262       -1.43464       -2.11465
H          5.39750       -1.26978       -2.85405
H         -3.86269       -0.16950       -0.16900
H         -2.96462       -0.39395       -1.69001
N         -1.09325       -2.05350       -0.76812
C         -2.31263       -1.65201       -0.05375
C         -3.21076       -2.87682       -0.34035
C         -2.74851       -3.31044       -1.73171
O         -1.51578       -2.60690       -1.96676
H         -2.13277       -1.61228        1.02245
C         -4.70269       -2.64294       -0.22818
H         -2.92599       -3.64680        0.39203
H         -2.57158       -4.39326       -1.79629
H         -3.44323       -3.00358       -2.52661
O         -4.97926       -2.19799        1.08265
H         -5.03011       -1.90565       -0.98263
H         -5.22706       -3.58928       -0.45248
H         -5.91457       -1.97041        1.13167
O         -2.73259        1.98284       -0.91422
S         -2.20810        3.56039       -0.70725
O         -2.93970        4.04655        0.46471
O         -0.75249        3.43314       -0.48646
O         -2.58905        4.16585       -1.97680
H          3.17392        3.20454        1.22716
H         -1.67118        0.27806        3.79846
