59
ZTX_ketone_230_solv.log	Energy: -1435165.1725558
C         -1.12846        1.60120        1.04527
N         -0.41332        1.44704        2.28931
C          0.50948        0.50641        2.48085
C         -0.50413        2.46300       -0.07987
H         -2.05141        2.14395        1.26909
N          1.28673        0.53131        3.54599
H          1.25861        1.32404        4.18048
H         -0.61655        2.09142        3.04874
N          0.67225       -0.45164        1.54399
C          0.55617       -0.83141       -0.75966
C          2.03462       -0.79603       -0.33298
C          1.98036       -1.00951        1.19355
O          0.12866       -0.89730       -1.87484
H          2.78164       -0.46266        1.70509
H          2.04845       -2.06685        1.47388
O         -1.17979        3.34826       -0.56201
C         -1.48804        0.24070        0.45193
C         -0.31653       -0.74770        0.51412
N         -0.99899       -1.99490        0.74592
C         -2.24591       -1.80162        1.17412
N         -2.54570       -0.48028        1.17698
H         -1.78222        0.36419       -0.60198
N         -3.04885       -2.77248        1.53749
H         -0.52299       -2.89226        0.64141
C         -3.88508        0.02215        1.31229
H         -4.01819       -2.60704        1.78572
C          2.65320        0.56412       -0.69605
O         -4.66113       -0.18886        0.14643
H         -4.39642       -0.51001        2.12163
H         -3.84712        1.08676        1.56603
C         -4.64442        0.78104       -0.78710
O         -4.00333        1.81021       -0.69792
N         -5.38837        0.46151       -1.86992
H         -5.61559        1.21365       -2.51731
O         -6.30536       -0.55321       -1.80740
H         -5.91505       -1.29602       -2.29221
H          3.70048        0.51388       -0.36812
H          2.64895        0.64747       -1.79292
N          0.65786        2.01972       -0.68139
C          1.98168        1.79265       -0.08081
C          2.66283        3.13709       -0.42222
C          2.05737        3.46863       -1.78436
O          0.89640        2.62782       -1.90613
H          1.91035        1.71936        1.00712
C          4.18338        3.17469       -0.39700
H          2.29658        3.86209        0.32025
H          1.75777        4.52302       -1.86472
H          2.72607        3.21250       -2.61940
O          4.71138        2.98034        0.89691
H          4.60092        2.45194       -1.11996
H          4.50537        4.17419       -0.72641
H          4.65412        2.04365        1.11849
O          2.78993       -1.74877       -1.04346
S          2.48420       -3.38252       -0.82377
O          3.37025       -3.78226        0.27187
O          1.04910       -3.43902       -0.47609
O          2.82521       -3.92489       -2.13257
H         -2.70868       -3.72963        1.53549
H          1.87687       -0.26040        3.78052
