59
ZTX_ketone_73_solv.log	Energy: -1435169.2211842
C          0.70573       -2.00176        0.76714
N          0.11103       -1.80078        2.06576
C         -0.60838       -0.72262        2.37329
C         -0.12833       -2.65296       -0.36511
H          1.51161       -2.73070        0.89518
N         -1.31242       -0.67876        3.48784
H         -1.40024       -1.50677        4.06989
H          0.23091       -2.52365        2.77006
N         -0.64172        0.30816        1.50408
C         -0.59405        0.80715       -0.77891
C         -2.02392        1.01836       -0.24998
C         -1.83669        1.12361        1.27754
O         -0.23056        0.85700       -1.91742
H         -2.69568        0.70873        1.81805
H         -1.68052        2.15548        1.61280
O          0.36698       -3.59025       -0.95847
C          1.28537       -0.69560        0.22760
C          0.32301        0.48501        0.42448
N          1.23643        1.57040        0.67538
C          2.45456        1.12861        0.98972
N          2.49288       -0.22424        0.91745
H          1.49983       -0.80366       -0.84783
N          3.46018        1.89714        1.33543
H          0.94246        2.54548        0.60216
C          3.67236       -1.02231        1.07934
H          4.41694        1.53373        1.25774
C         -2.90916       -0.17885       -0.63319
O          4.39609       -1.19122       -0.12759
H          4.30755       -0.58219        1.85728
H          3.38312       -2.02863        1.39554
C          5.43183       -0.36075       -0.36100
O          5.76432        0.55194        0.37280
N          6.01241       -0.67053       -1.53688
H          5.84328       -1.57636       -1.96994
O          7.21581       -0.09176       -1.82070
H          7.03178        0.60622       -2.46761
H         -3.90176        0.03024       -0.21273
H         -2.99591       -0.18982       -1.72967
N         -1.23784       -1.99149       -0.84448
C         -2.44834       -1.54927       -0.13677
C         -3.41105       -2.70674       -0.49109
C         -2.93398       -3.12640       -1.88267
O         -1.66950       -2.46793       -2.07249
H         -2.29187       -1.56341        0.94383
C         -4.88861       -2.38345       -0.41754
H         -3.19917       -3.51568        0.22369
H         -2.79967       -4.21396       -1.96877
H         -3.59591       -2.77297       -2.68607
O         -5.18271       -1.96855        0.89934
H         -5.14405       -1.60127       -1.15452
H         -5.46189       -3.28682       -0.69349
H         -6.10477       -1.68908        0.92724
O         -2.62937        2.13553       -0.85733
S         -2.00807        3.66795       -0.58563
O         -2.32798        4.34214       -1.83734
O         -2.72626        4.15782        0.59297
O         -0.56756        3.43898       -0.34902
H          3.31877        2.90267        1.36340
H         -1.74859        0.18411        3.79674
