59
ZTX_ketone_213_solv.log	Energy: -1435167.1013066
C          0.74651       -1.86501        0.95607
N          0.19276       -1.55847        2.25247
C         -0.49872       -0.44717        2.49863
C         -0.13555       -2.57773       -0.09910
H          1.54476       -2.59610        1.11379
N         -1.17366       -0.30861        3.62325
H         -1.26044       -1.08818        4.26871
H          0.31880       -2.23286        3.00202
N         -0.53441        0.51889        1.55815
C         -0.54357        0.85247       -0.75449
C         -1.95307        1.13232       -0.20139
C         -1.71456        1.34807        1.30696
O         -0.21294        0.81509       -1.90335
H         -2.56577        1.00022        1.90414
H         -1.52030        2.39751        1.55693
O          0.31661       -3.57021       -0.63337
C          1.33348       -0.61529        0.30289
C          0.40233        0.59748        0.44293
N          1.34477        1.67667        0.59140
C          2.56386        1.23063        0.89616
N          2.57337       -0.12515        0.91692
H          1.50904       -0.80724       -0.76813
N          3.59537        1.99843        1.15437
H          1.06844        2.65105        0.46274
C          3.75002       -0.93237        1.04543
H          4.54253        1.60846        1.08225
C         -2.87484       -0.06987       -0.46887
O          4.41030       -1.13549       -0.19392
H          4.42807       -0.48187        1.77988
H          3.46342       -1.92772        1.39712
C          5.46118       -0.35178       -0.47750
O          5.85569        0.56025        0.23330
N          6.02337       -0.64922       -1.66504
H          6.93019       -0.23847       -1.87764
O          5.74325       -1.83045       -2.29318
H          5.11882       -1.61620       -3.00303
H         -3.85150        0.19698       -0.04253
H         -2.99399       -0.15760       -1.55905
N         -1.23991       -1.91930       -0.59884
C         -2.42764       -1.41386        0.10812
C         -3.41718       -2.57013       -0.15258
C         -2.98173       -3.08095       -1.52846
O         -1.70703       -2.46480       -1.78440
H         -2.24274       -1.36328        1.18428
C         -4.89831       -2.23369       -0.05713
H         -3.19769       -3.34191        0.60165
H         -2.87218       -4.17418       -1.55795
H         -3.65580       -2.75778       -2.33453
O         -5.69644       -3.37211       -0.29793
H         -5.11461       -1.78710        0.93018
H         -5.17484       -1.49556       -0.82446
H         -5.50936       -4.01708        0.39517
O         -2.55454        2.21462       -0.87193
S         -1.89587        3.74929       -0.72896
O         -2.56839        4.33670        0.43209
O         -0.45360        3.50730       -0.51820
O         -2.24191        4.33882       -2.01587
H          3.47606        3.00628        1.10959
H         -1.57997        0.58486        3.88156
