59
ZTX_ketone_129_solv.log	Energy: -1435166.9237528
C         -1.53703        1.18370       -0.45093
N         -1.60286        1.08788        0.98784
C         -0.79512        0.29986        1.69504
C         -0.58484        2.20926       -1.10811
H         -2.52295        1.52946       -0.77562
N         -0.76372        0.36652        3.01172
H         -1.27706        1.09386        3.50088
H         -2.37437        1.55377        1.45959
N          0.03774       -0.53383        1.03818
C          1.26650       -0.78971       -0.93081
C          2.23415       -0.50128        0.23145
C          1.40077       -0.81911        1.48896
O          1.53883       -0.86489       -2.09325
H          1.67062       -0.16895        2.32933
H          1.50214       -1.86183        1.81077
O         -1.05315        2.95226       -1.94885
C         -1.27168       -0.18314       -1.07691
C         -0.15661       -0.94534       -0.34825
N         -0.61538       -2.30853       -0.45420
C         -1.92613       -2.35539       -0.70357
N         -2.39773       -1.12104       -0.98213
H         -0.99046       -0.05675       -2.13443
N         -2.64301       -3.45383       -0.68664
H         -0.02789       -3.09142       -0.16589
C         -3.70228       -0.87447       -1.54715
H         -3.64056       -3.43773       -0.87253
C          2.67790        0.97128        0.19433
O         -4.71718       -0.93914       -0.56630
H         -3.69135        0.10029       -2.04884
H         -3.95580       -1.64861       -2.28168
C         -5.02011        0.18382        0.12025
O         -4.58892        1.28852       -0.13197
N         -5.84669       -0.12562        1.14536
H         -6.35139       -1.01025        1.13307
O         -6.50512        0.91097        1.74742
H         -6.06905        1.04404        2.60237
H          3.37630        1.10588        1.02987
H          3.24167        1.12349       -0.73717
N          0.77414        2.06591       -0.94076
C          1.56586        2.01521        0.29799
C          2.04358        3.48532        0.37224
C          2.17181        3.87131       -1.10403
O          1.52012        2.81799       -1.83530
H          0.91525        1.83805        1.15759
C          3.25940        3.79041        1.23044
H          1.20541        4.04518        0.81173
H          1.68416        4.83109       -1.32771
H          3.21394        3.89466       -1.44634
O          4.43898        3.32274        0.61449
H          3.30492        4.88357        1.38224
H          3.11334        3.33018        2.22457
H          5.17678        3.50696        1.20641
O          3.42098       -1.24777        0.09664
S          3.36449       -2.91826        0.21261
O          3.56543       -3.19970        1.63594
O          2.01548       -3.27079       -0.27691
O          4.46218       -3.31179       -0.66190
H         -2.20361       -4.33990       -0.45653
H         -0.26743       -0.33275        3.55508
