59
ZTX_ketone_190_solv.log	Energy: -1435165.8823318
C          1.05923       -1.59658        1.07993
N          0.42350       -1.33999        2.34957
C         -0.41655       -0.32543        2.54795
C          0.31473       -2.44817        0.02206
H          1.94654       -2.20454        1.28012
N         -1.14106       -0.25818        3.64869
H         -1.13900       -1.03067        4.30843
H          0.61611       -1.97150        3.12223
N         -0.54958        0.61080        1.58455
C         -0.52831        0.88262       -0.73796
C         -1.98034        0.98260       -0.23599
C         -1.82470        1.26114        1.27346
O         -0.15727        0.86733       -1.87492
H         -2.63819        0.81150        1.85474
H         -1.78611        2.33263        1.50099
O          0.89923       -3.39708       -0.45829
C          1.49217       -0.29015        0.41946
C          0.40227        0.78662        0.49340
N          1.18705        1.98762        0.63232
C          2.43440        1.71534        1.01544
N          2.62603        0.37638        1.07652
H          1.73350       -0.47143       -0.63975
N          3.33371        2.62966        1.29055
H          0.77818        2.91284        0.49240
C          3.91840       -0.22417        1.24440
H          4.30299        2.39358        1.47746
C         -2.72120       -0.33837       -0.50391
O          4.71664       -0.13846        0.07740
H          4.46700        0.31159        2.02637
H          3.79533       -1.26655        1.55664
C          4.57459       -1.11958       -0.83201
O          3.80801       -2.05620       -0.71636
N          5.42217       -0.97775       -1.87653
H          5.22500       -1.52707       -2.71064
O          6.04298        0.22151       -2.10328
H          6.96540        0.09989       -1.83310
H         -3.73954       -0.20018       -0.11579
H         -2.78794       -0.46437       -1.59472
N         -0.84467       -1.94729       -0.53714
C         -2.11226       -1.59335        0.12187
C         -2.92386       -2.88311       -0.12368
C         -2.37094       -3.38078       -1.46308
O         -1.19719       -2.58781       -1.71464
H         -1.96656       -1.48551        1.19948
C         -4.43285       -2.74134       -0.08639
H         -2.63669       -3.59134        0.66760
H         -2.09590       -4.44466       -1.43593
H         -3.05876       -3.19999       -2.30117
O         -4.97802       -4.03761       -0.21089
H         -4.73451       -2.26608        0.86529
H         -4.77498       -2.08984       -0.91006
H         -5.93556       -3.95281       -0.27909
O         -2.69783        1.95973       -0.95284
S         -2.25714        3.57202       -0.83038
O         -3.04445        4.08919        0.29123
O         -0.80380        3.53234       -0.56555
O         -2.63192        4.08021       -2.14375
H          3.07515        3.61141        1.25523
H         -1.65712        0.58328        3.88494
