59
ZTX_ketone_305_solv.log	Energy: -1435166.4951261
C          0.74339       -1.86984        0.94705
N          0.18668       -1.56716        2.24311
C         -0.50543       -0.45663        2.49098
C         -0.13603       -2.58040       -0.11185
H          1.54113       -2.60150        1.10468
N         -1.18272       -0.32110        3.61451
H         -1.27208       -1.10287        4.25699
H          0.31069       -2.24397        2.99083
N         -0.53928        0.51192        1.55296
C         -0.53993        0.85545       -0.75816
C         -1.95175        1.13212       -0.20947
C         -1.71948        1.34087        1.30085
O         -0.20483        0.82346       -1.90591
H         -2.57264        0.98931        1.89306
H         -1.52754        2.38941        1.55636
O          0.31578       -3.57364       -0.64488
C          1.33232       -0.61822        0.29918
C          0.40149        0.59475        0.44154
N          1.34420        1.67253        0.59808
C          2.56200        1.22446        0.90498
N          2.57118       -0.13139        0.91790
H          1.51014       -0.80660       -0.77209
N          3.59259        1.99067        1.17161
H          1.06852        2.64777        0.47483
C          3.74714       -0.93985        1.04533
H          4.54003        1.60106        1.10116
C         -2.87151       -0.06952       -0.48670
O          4.41262       -1.13435       -0.19262
H          4.42240       -0.49514        1.78584
H          3.45863       -1.93761        1.38858
C          5.46570       -0.34983       -0.46554
O          5.85704        0.55742        0.25307
N          6.03394       -0.64021       -1.65200
H          6.94229       -0.22900       -1.85696
O          5.75707       -1.81789       -2.28834
H          5.13541       -1.59984       -2.99945
H         -3.85129        0.19576       -0.06667
H         -2.98311       -0.15410       -1.57788
N         -1.23707       -1.91892       -0.61500
C         -2.42541       -1.41417        0.08996
C         -3.41398       -2.57115       -0.16976
C         -2.98698       -3.06281       -1.55552
O         -1.70227       -2.46450       -1.80187
H         -2.24343       -1.36507        1.16665
C         -4.89357       -2.23189       -0.03661
H         -3.18761       -3.34988        0.57341
H         -2.89675       -4.15707       -1.60645
H         -3.65752       -2.71244       -2.35415
O         -5.70238       -3.38845       -0.05915
H         -5.06463       -1.74300        0.93456
H         -5.19898       -1.52207       -0.82513
H         -5.71124       -3.73599       -0.95896
O         -2.55090        2.21734       -0.87734
S         -1.89304        3.75142       -0.72457
O         -2.23294        4.34658       -2.01054
O         -2.57121        4.33373        0.43574
O         -0.45180        3.50850       -0.50793
H          3.47347        2.99877        1.13247
H         -1.59090        0.57127        3.87364
