59
ZTX_ketone_62_solv.log	Energy: -1435167.6799079
C          0.60269       -1.97545        0.89330
N          0.06216       -1.68205        2.19848
C         -0.56754       -0.54264        2.48010
C         -0.30916       -2.60614       -0.18768
H          1.36245       -2.75084        1.02911
N         -1.23028       -0.39910        3.61114
H         -1.36084       -1.19065        4.23416
H          0.15964       -2.38133        2.92924
N         -0.55449        0.45095        1.56805
C         -0.54029        0.85888       -0.73194
C         -1.93539        1.19219       -0.17131
C         -1.69071        1.34667        1.34309
O         -0.20990        0.84109       -1.88133
H         -2.55927        1.02262        1.92817
H         -1.44414        2.37645        1.62660
O          0.09506       -3.60170       -0.75372
C          1.25545       -0.73733        0.28177
C          0.38836        0.51731        0.45745
N          1.38609        1.54055        0.64209
C          2.57784        1.02093        0.94016
N          2.51467       -0.33305        0.91813
H          1.42764       -0.90468       -0.79393
N          3.64700        1.72389        1.22920
H          1.15965        2.53146        0.54463
C          3.64087       -1.21125        1.03710
H          4.57260        1.28824        1.14834
C         -2.91697        0.04904       -0.48079
O          4.29449       -1.43491       -0.20074
H          4.34011       -0.81459        1.78254
H          3.29177       -2.19267        1.37131
C          5.37352       -0.67974       -0.48806
O          5.81678        0.19494        0.23350
N          5.85818       -1.01409       -1.69974
H          5.58894       -1.89277       -2.13812
O          7.08322       -0.52440       -2.05031
H          6.91503        0.20108       -2.67080
H         -3.87968        0.34975       -0.04544
H         -3.03846        0.00819       -1.57339
N         -1.37352       -1.87369       -0.67146
C         -2.54277       -1.33817        0.04420
C         -3.58740       -2.43092       -0.27405
C         -3.15716       -2.91513       -1.66151
O         -1.85342       -2.34871       -1.88196
H         -2.36887       -1.34255        1.12336
C         -5.05000       -2.01849       -0.19061
H         -3.42321       -3.24016        0.45447
H         -3.09602       -4.01070       -1.72590
H         -3.80541       -2.53610       -2.46435
O         -5.90320       -3.10094       -0.49288
H         -5.26179       -1.60155        0.81055
H         -5.27087       -1.23565       -0.93118
H         -5.76167       -3.78526        0.17280
O         -2.47787        2.32637       -0.80610
S         -1.73781        3.81779       -0.61267
O         -0.31107        3.49083       -0.40969
O         -2.04843        4.46762       -1.87938
O         -2.37959        4.40227        0.56718
H          3.58062        2.73739        1.22190
H         -1.58827        0.50770        3.89347
