59
ZTX_ketone_7_solv.log	Energy: -1435167.9333402
C          0.71816       -1.98546        0.91093
N          0.17592       -1.72154        2.22199
C         -0.52849       -0.62720        2.50479
C         -0.16571       -2.68679       -0.15132
H          1.52572       -2.71172        1.04142
N         -1.19491       -0.52664        3.63849
H         -1.26428       -1.32438        4.26380
H          0.31981       -2.41305        2.95274
N         -0.58759        0.36130        1.58939
C         -0.59616        0.78499       -0.70723
C         -2.01057        1.02113       -0.15041
C         -1.78548        1.17362        1.36734
O         -0.26113        0.79531       -1.85558
H         -2.63127        0.77807        1.94234
H         -1.61925        2.21489        1.66687
O          0.28525       -3.67603       -0.69307
C          1.28709       -0.71211        0.28807
C          0.34968        0.49007        0.48004
N          1.28603        1.56792        0.67127
C          2.51267        1.11893        0.93861
N          2.53366       -0.23562        0.89936
H          1.44888       -0.86959       -0.79062
N          3.54134        1.88418        1.21727
H          1.00302        2.54468        0.58185
C          3.71783       -1.03904        0.98343
H          4.49047        1.50846        1.11138
C         -2.91065       -0.18213       -0.48071
O          4.36642       -1.19742       -0.26756
H          4.40217       -0.60936        1.72450
H          3.44249       -2.04734        1.30618
C          5.40768       -0.38682       -0.54365
O          5.79980        0.50608        0.18512
N          5.91681       -0.68932       -1.75402
H          5.70381       -1.58355       -2.19184
O          7.11702       -0.13353       -2.09248
H          6.91590        0.58012       -2.71676
H         -3.90500        0.05541       -0.08185
H         -2.99651       -0.24018       -1.57511
N         -1.27219       -2.02671       -0.64435
C         -2.46048       -1.53414        0.07215
C         -3.43704       -2.71030       -0.17655
C         -2.99286       -3.23529       -1.54573
O         -1.74807       -2.57267       -1.82642
H         -2.26835       -1.49306        1.14715
C         -4.92472       -2.43139       -0.04341
H         -3.19278       -3.46340        0.58629
H         -2.83886       -4.32409       -1.54352
H         -3.68371       -2.95891       -2.35179
O         -5.38937       -1.66311       -1.13114
H         -5.45118       -3.40131        0.00341
H         -5.10326       -1.91813        0.91894
H         -6.32445       -1.47918       -0.98864
O         -2.62395        2.12345       -0.77695
S         -1.98333        3.65782       -0.57079
O         -2.67030        4.19329        0.60684
O         -0.53977        3.42363       -0.35859
O         -2.32618        4.29355       -1.83656
H          3.41240        2.89181        1.21947
H         -1.60954        0.35484        3.92353
