59
ZTX_ketone_5_solv.log	Energy: -1435169.1325986
C          1.10081       -1.65974       -0.30558
N          1.15199       -1.52634        1.12983
C          0.51949       -0.55664        1.78719
C         -0.06146       -2.44747       -0.95722
H          1.97740       -2.24495       -0.60140
N          0.41123       -0.58909        3.10124
H          0.72118       -1.40367        3.62286
H          1.68938       -2.20704        1.65993
N         -0.05524        0.44090        1.08262
C         -1.10667        0.95876       -0.93675
C         -2.15956        0.94557        0.18681
C         -1.32153        1.06333        1.47524
O         -1.30863        1.07752       -2.10982
H         -1.77798        0.51179        2.30551
H         -1.17390        2.10331        1.78820
O          0.22215       -3.34280       -1.72625
C          1.18187       -0.29006       -0.97994
C          0.28742        0.75556       -0.30008
N          1.09683        1.94578       -0.40721
C          2.38077        1.64146       -0.62116
N          2.50824        0.32375       -0.89955
H          0.89105       -0.37974       -2.03938
N          3.37419        2.49530       -0.59010
H          0.74072        2.85514       -0.11375
C          3.64585       -0.27991       -1.54149
H          4.33301        2.13016       -0.56218
C         -2.96252       -0.36609        0.14452
O          4.44867       -1.01991       -0.64214
H          3.28451       -1.00538       -2.27901
H          4.24378        0.48331       -2.05474
C          5.41330       -0.35229        0.01877
O          5.62007        0.84282       -0.08363
N          6.13653       -1.20880        0.76748
H          5.77908       -2.14075        0.96831
O          6.97172       -0.67750        1.70797
H          7.86698       -0.74574        1.34291
H         -3.69632       -0.29425        0.95880
H         -3.51380       -0.38798       -0.80725
N         -1.33829       -1.92299       -0.88519
C         -2.16208       -1.65876        0.30625
C         -3.02458       -2.93920        0.33766
C         -3.14887       -3.30136       -1.14526
O         -2.19845       -2.46496       -1.82743
H         -1.54384       -1.64864        1.20772
C         -4.35076       -2.83514        1.06465
H         -2.42564       -3.70983        0.84525
H         -2.91596       -4.35749       -1.34194
H         -4.13725       -3.05937       -1.56107
O         -4.92521       -4.12455        1.07771
H         -4.18079       -2.45851        2.09033
H         -5.01191       -2.11639        0.54905
H         -5.81472       -4.04940        1.44105
O         -3.11154        1.96599       -0.00130
S         -2.63087        3.56956        0.08711
O         -2.81798        3.93704        1.49270
O         -1.21541        3.54581       -0.33631
O         -3.54802        4.20494       -0.85105
H          3.19485        3.45971       -0.32733
H          0.07792        0.22001        3.61538
