59
ZTX_ketone_144_solv.log	Energy: -1435166.4597095
C          1.22071       -1.35227        1.19984
N          0.52780       -1.11185        2.44238
C         -0.41722       -0.18355        2.57908
C          0.60351       -2.33171        0.17250
H          2.16560       -1.84393        1.44759
N         -1.16350       -0.14029        3.66619
H         -1.09306       -0.87524        4.36370
H          0.77018       -1.68163        3.24844
N         -0.63167        0.68661        1.56903
C         -0.59194        0.84095       -0.76513
C         -2.05610        0.79965       -0.29136
C         -1.96502        1.17115        1.20282
O         -0.19710        0.81172       -1.89380
H         -2.73620        0.66284        1.79318
H         -2.05272        2.25008        1.37434
O          1.30378       -3.22706       -0.25295
C          1.52083       -0.03766        0.48523
C          0.31725        0.91223        0.48419
N          0.96239        2.19807        0.57380
C          2.21868        2.08481        1.00645
N          2.55833        0.77952        1.13295
H          1.80668       -0.23921       -0.55906
N          2.99939        3.10542        1.26774
H          0.45379        3.06528        0.39515
C          3.91019        0.33169        1.32401
H          3.97326        2.98356        1.52446
C         -2.63981       -0.60862       -0.49778
O          4.69935        0.46298        0.15677
H          4.39486        0.94509        2.09093
H          3.89868       -0.70765        1.66943
C          4.68421       -0.56982       -0.71626
O          4.05389       -1.59273       -0.55839
N          5.43696       -0.25905       -1.79597
H          6.12646        0.48741       -1.73339
O          5.75859       -1.28043       -2.64643
H          5.18606       -1.17376       -3.42097
H         -3.67374       -0.56514       -0.12917
H         -2.67369       -0.79645       -1.58116
N         -0.59421       -1.99385       -0.42544
C         -1.90509       -1.75430        0.19925
C         -2.56108       -3.13750        0.00623
C         -1.94060       -3.62394       -1.30664
O         -0.85115       -2.72335       -1.57581
H         -1.79474       -1.57956        1.27225
C         -4.07632       -3.16678        0.02853
H         -2.20252       -3.77352        0.82922
H         -1.55743       -4.65170       -1.23634
H         -2.63159       -3.54665       -2.15802
O         -4.47221       -4.51947       -0.05112
H         -4.43978       -2.69335        0.95937
H         -4.48127       -2.58933       -0.82126
H         -5.43146       -4.54296       -0.14161
O         -2.86370        1.65120       -1.06976
S         -2.60848        3.30713       -1.02469
O         -3.47728        3.78776        0.05213
O         -1.16709        3.44448       -0.72998
O         -3.00453        3.70370       -2.37007
H          2.63420        4.04991        1.18941
H         -1.76801        0.65346        3.85330
