59
ZTX_ketone_69_solv.log	Energy: -1435166.4355378
C         -1.30661        1.32646        1.25194
N         -0.61628        1.09287        2.49755
C          0.37302        0.21023        2.62407
C         -0.72860        2.35885        0.25345
H         -2.27615        1.76847        1.49995
N          1.10986        0.17921        3.71787
H          1.00265        0.89785        4.42751
H         -0.89083        1.63658        3.31126
N          0.63988       -0.62618        1.59859
C          0.62812       -0.73969       -0.73794
C          2.08319       -0.63483       -0.25018
C          1.99874       -1.03686        1.23606
O          0.24091       -0.70633       -1.86932
H          2.73943       -0.50071        1.84068
H          2.13937       -2.11291        1.38940
O         -1.47106        3.22750       -0.15718
C         -1.53454        0.01523        0.50449
C         -0.28744       -0.87671        0.50093
N         -0.87095       -2.19298        0.56100
C         -2.13636       -2.14810        0.97757
N         -2.54293       -0.86306        1.11664
H         -1.81312        0.22769       -0.53947
N         -2.86866       -3.20958        1.21495
H         -0.31781       -3.03145        0.37812
C         -3.92144       -0.48793        1.27160
H         -3.85226       -3.13725        1.45237
C          2.59458        0.80485       -0.43328
O         -4.67386       -0.67015        0.08680
H         -4.39172       -1.12011        2.03251
H         -3.97331        0.55322        1.60654
C         -4.69058        0.35329       -0.79740
O         -4.12142        1.41081       -0.63472
N         -5.39552       -0.00927       -1.89291
H         -6.04368       -0.79273       -1.84112
O         -5.74750        0.98325       -2.76497
H         -5.15100        0.89655       -3.52382
H          3.63261        0.81693       -0.07754
H          2.61101        1.01218       -1.51269
N          0.48973        2.10009       -0.33955
C          1.80657        1.89862        0.28765
C          2.38783        3.32699        0.15840
C          1.75779        3.82939       -1.14357
O          0.72441        2.88080       -1.46140
H          1.69543        1.68785        1.35402
C          3.89511        3.48685        0.25383
H          1.96206        3.89505        0.99818
H          1.31767        4.83101       -1.03365
H          2.46175        3.82292       -1.98521
O          4.52696        2.99654       -0.90778
H          4.11636        4.55977        0.39608
H          4.24872        2.95990        1.15856
H          5.47956        3.07526       -0.78465
O          2.93908       -1.43299       -1.03442
S          2.76373       -3.09913       -1.01862
O          3.64416       -3.55557        0.05951
O          1.32794       -3.31158       -0.74165
O          3.19165       -3.45499       -2.36570
H         -2.45821       -4.13416        1.12414
H          1.75946       -0.58181        3.88871
