59
ZTX_ketone_232_solv.log	Energy: -1435165.7703339
C         -1.25062        1.40014        1.13930
N         -0.49803        1.26727        2.36354
C          0.50838        0.40676        2.50573
C         -0.73842        2.35236        0.02995
H         -2.21236        1.85093        1.40027
N          1.29955        0.46440        3.55961
H          1.21259        1.22903        4.22260
H         -0.74477        1.86229        3.14974
N          0.73684       -0.49894        1.53146
C          0.60976       -0.79663       -0.78436
C          2.08677       -0.64148       -0.38001
C          2.08225       -0.92196        1.13626
O          0.16784       -0.85520       -1.89426
H          2.84300       -0.32885        1.65780
H          2.24790       -1.97989        1.36979
O         -1.51563        3.17053       -0.41789
C         -1.49992        0.03422        0.50446
C         -0.24190       -0.84434        0.50639
N         -0.80381       -2.15736        0.69805
C         -2.05466       -2.09463        1.15460
N         -2.46810       -0.80678        1.22479
H         -1.83037        0.16705       -0.53760
N         -2.76913       -3.14412        1.48290
H         -0.25520       -3.00283        0.53424
C         -3.83768       -0.43075        1.44099
H         -3.74671       -3.06445        1.74215
C          2.56849        0.78460       -0.69427
O         -4.65976       -0.69117        0.31865
H         -4.25274       -1.01913        2.26640
H         -3.88073        0.62880        1.71489
C         -4.74959        0.27767       -0.62100
O         -4.19204        1.35162       -0.55622
N         -5.51415       -0.16070       -1.64711
H         -6.14232       -0.94966       -1.50666
O         -5.94532        0.77406       -2.54721
H         -5.40716        0.64662       -3.34281
H          3.62166        0.82240       -0.38389
H          2.53622        0.91115       -1.78652
N          0.45294        2.05569       -0.59803
C          1.79753        1.92098       -0.01977
C          2.35343        3.33221       -0.31250
C          1.71967        3.64945       -1.66402
O          0.61825        2.73296       -1.79882
H          1.74383        1.80062        1.06489
C          3.86419        3.50503       -0.27486
H          1.92101        3.99520        0.45212
H          1.34623        4.68132       -1.72178
H          2.40166        3.45818       -2.50587
O          4.39888        3.30783        1.01598
H          4.34864        2.85069       -1.02097
H          4.09823        4.54105       -0.56231
H          4.39416        2.36390        1.21410
O          2.91344       -1.48983       -1.14150
S          2.76066       -3.15261       -0.98765
O          3.69461       -3.51602        0.08049
O          1.34174       -3.35421       -0.62735
O          3.13036       -3.60704       -2.32196
H         -2.35293       -4.06963        1.43859
H          1.96172       -0.27941        3.75647
