59
ZTX_ketone_205_solv.log	Energy: -1435163.4601389
C         -1.03155        1.70420        1.09576
N         -0.38483        1.49510        2.36869
C          0.48666        0.51200        2.58530
C         -0.32133        2.55764        0.01581
H         -1.93517        2.28906        1.29128
N          1.22134        0.49024        3.68062
H          1.20211        1.27658        4.32337
H         -0.58685        2.14249        3.12584
N          0.64128       -0.44059        1.64223
C          0.60683       -0.78981       -0.66747
C          2.06467       -0.82496       -0.17876
C          1.93368       -1.05968        1.33904
O          0.22341       -0.81666       -1.80009
H          2.73811       -0.56522        1.89608
H          1.93322       -2.12383        1.60152
O         -0.94944        3.47009       -0.48317
C         -1.42915        0.37342        0.45980
C         -0.31613       -0.67561        0.56892
N         -1.07325       -1.88692        0.76302
C         -2.33309       -1.63287        1.11027
N         -2.56647       -0.29366        1.10835
H         -1.66508        0.52734       -0.60557
N         -3.21212       -2.55714        1.40934
H         -0.63718       -2.80739        0.69130
C         -3.88313        0.24871        0.97936
H         -4.17708       -2.33007        1.62599
C          2.75573        0.51207       -0.50029
O         -4.30593        0.03163       -0.36120
H         -4.57104       -0.23448        1.68558
H         -3.86400        1.32198        1.20330
C         -5.48560        0.56485       -0.69693
O         -6.19172        1.19365        0.06749
N         -5.78675        0.37311       -2.00682
H         -6.76194        0.49982       -2.27090
O         -5.12430       -0.59502       -2.71841
H         -4.52735       -0.12186       -3.31666
H          3.79117        0.41903       -0.14913
H          2.78362        0.61319       -1.59466
N          0.85349        2.09453       -0.53739
C          2.13152        1.76449        0.11492
C          2.90788        3.08087       -0.13084
C          2.34679        3.55788       -1.47298
O          1.18825        2.74169       -1.71746
H          1.99513        1.66585        1.19443
C          4.42357        3.03513       -0.04287
H          2.57239        3.77073        0.65699
H          2.05260        4.61709       -1.44871
H          3.03810        3.38232       -2.30671
O          4.97183        2.37095       -1.15979
H          4.79304        4.07450        0.01430
H          4.70701        2.53708        0.90220
H          5.92886        2.34533       -1.04975
O          2.80798       -1.80031       -0.87082
S          2.41274       -3.41940       -0.69477
O          3.23024       -3.88171        0.42932
O          0.96290       -3.40922       -0.40821
O          2.78181       -3.95747       -1.99784
H         -2.93399       -3.53422        1.40890
H          1.76747       -0.32862        3.92839
