59
ZTX_ketone_86_solv.log	Energy: -1435167.9405566
C          0.70943       -1.99378        0.90414
N          0.16861       -1.73113        2.21608
C         -0.53084       -0.63442        2.50211
C         -0.17781       -2.68842       -0.15964
H          1.51389       -2.72387        1.03238
N         -1.19601       -0.53385        3.63655
H         -1.26847       -1.33291        4.25983
H          0.31023       -2.42495        2.94507
N         -0.58618        0.35658        1.58921
C         -0.59466        0.78501       -0.70656
C         -2.00758        1.02621       -0.14801
C         -1.78015        1.17532        1.36974
O         -0.26060        0.79599       -1.85518
H         -2.62754        0.78368        1.94498
H         -1.60805        2.21530        1.67049
O          0.26961       -3.67713       -0.70539
C          1.28376       -0.72114        0.28478
C          0.35091        0.48406        0.47945
N          1.29129        1.55801        0.67234
C          2.51612        1.10382        0.93922
N          2.53186       -0.25096        0.89814
H          1.44541       -0.87645       -0.79426
N          3.54787        1.86430        1.21880
H          1.01181        2.53602        0.58533
C          3.71491       -1.05642        0.97250
H          4.49573        1.48460        1.11346
C         -2.91335       -0.17252       -0.47921
O          4.36338       -1.19485       -0.28157
H          4.39954       -0.63700        1.71922
H          3.43785       -2.06871        1.28133
C          5.42910       -0.40795       -0.52918
O          5.81149        0.48717        0.20229
N          6.02562       -0.78719       -1.67630
H          5.53922       -1.39755       -2.33031
O          6.93729        0.06745       -2.22693
H          7.80994       -0.30723       -2.03274
H         -3.90598        0.06860       -0.07821
H         -3.00124       -0.22791       -1.57359
N         -1.28299       -2.02364       -0.64891
C         -2.46831       -1.52764        0.07014
C         -3.44986       -2.69925       -0.18012
C         -3.01031       -3.22185       -1.55165
O         -1.76252       -2.56461       -1.83181
H         -2.27503       -1.48982        1.14499
C         -4.93623       -2.41541       -0.04297
H         -3.20681       -3.45552        0.58000
H         -2.86184       -4.31141       -1.55336
H         -3.70093       -2.93920       -2.35574
O         -5.40056       -1.64214       -1.12730
H         -5.46602       -3.38361        0.00199
H         -5.11089       -1.90453        0.92136
H         -6.33526       -1.45741       -0.98337
O         -2.61697        2.13212       -0.77212
S         -1.96984        3.66345       -0.56385
O         -0.52708        3.42287       -0.35345
O         -2.31130        4.30290       -1.82812
O         -2.65344        4.19961        0.61545
H          3.42308        2.87245        1.22192
H         -1.60690        0.34859        3.92403
