59
ZTX_ketone_179_solv.log	Energy: -1435164.8174106
C         -1.06752        1.67124        0.99603
N         -0.35921        1.54707        2.24718
C          0.55336        0.60357        2.47005
C         -0.44171        2.49737       -0.15464
H         -1.98701        2.22743        1.20302
N          1.32313        0.64676        3.53956
H          1.30107        1.45518        4.15419
H         -0.56227        2.21324        2.98773
N          0.71531       -0.37836        1.55822
C          0.61180       -0.81553       -0.73464
C          2.08768       -0.77284       -0.29988
C          2.02293       -0.95076        1.23064
O          0.19010       -0.90141       -1.85060
H          2.82266       -0.39555        1.73496
H          2.08337       -2.00138        1.53662
O         -1.13582        3.34347       -0.68235
C         -1.43306        0.29706        0.43674
C         -0.26885       -0.69591        0.53148
N         -0.96138       -1.93172        0.79671
C         -2.21005       -1.71996        1.20706
N         -2.50246       -0.39305        1.17227
H         -1.73049        0.39583       -0.61974
N         -3.02518       -2.67094        1.59171
H         -0.48549       -2.83364        0.73987
C         -3.84396        0.09918        1.11465
H         -3.98627       -2.47964        1.85435
C          2.71383        0.57666       -0.68944
O         -4.32461       -0.11271       -0.20684
H         -4.47548       -0.42348        1.84526
H         -3.85576        1.16813        1.35839
C         -5.47744        0.49140       -0.51717
O         -6.12924        1.15898        0.26260
N         -5.81777        0.32068       -1.81981
H         -6.78897        0.50426       -2.06430
O         -5.22003       -0.67186       -2.55329
H         -4.61099       -0.22413       -3.15918
H          3.75533        0.53899       -0.34341
H          2.71888        0.63620       -1.78783
N          0.73676        2.06523       -0.72283
C          2.05037        1.82475       -0.10674
C          2.76521        3.14868       -0.46419
C          2.13447        3.51871       -1.80751
O          0.99614        2.65175       -1.95167
H          1.96641        1.77459        0.98093
C          4.27825        3.10053       -0.48801
H          2.45541        3.88164        0.29546
H          1.80590        4.56710       -1.84104
H          2.79629        3.31334       -2.66087
O          4.72768        2.70548        0.79047
H          4.62443        2.40284       -1.27136
H          4.65855        4.10248       -0.75706
H          5.68607        2.60822        0.75389
O          2.84429       -1.74439       -0.98317
S          2.52791       -3.37055       -0.72720
O          3.40808       -3.75044        0.38026
O          1.09133       -3.40977       -0.38259
O          2.86934       -3.94553       -2.02198
H         -2.70170       -3.63377        1.60874
H          1.90908       -0.14251        3.79217
