59
ZTX_ketone_92_solv.log	Energy: -1435166.2988475
C         -1.22078        1.34993        1.19955
N         -0.52773        1.11039        2.44225
C          0.41818        0.18299        2.57913
C         -0.60439        2.32985        0.17222
H         -2.16619        1.84061        1.44720
N          1.16434        0.14051        3.66638
H          1.09266        0.87509        4.36413
H         -0.77129        1.67951        3.24842
N          0.63374       -0.68690        1.56915
C          0.59471       -0.84181       -0.76502
C          2.05883       -0.79887       -0.29095
C          1.96760       -1.17024        1.20331
O          0.20007       -0.81379       -1.89379
H          2.73818       -0.66122        1.79381
H          2.05618       -2.24908        1.37494
O         -1.30476        3.22567       -0.25220
C         -1.51934        0.03495        0.48501
C         -0.31475       -0.91368        0.48417
N         -0.95859       -2.20019        0.57398
C         -2.21500       -2.08815        1.00662
N         -2.55603       -0.78319        1.13277
H         -1.80527        0.23610       -0.55934
N         -2.99468       -3.10947        1.26824
H         -0.44899       -3.06691        0.39581
C         -3.90831       -0.33664        1.32378
H         -3.96868       -2.98842        1.52484
C          2.64117        0.61005       -0.49721
O         -4.69730       -0.46869        0.15651
H         -4.39245       -0.95039        2.09077
H         -3.89781        0.70273        1.66913
C         -4.68304        0.56412       -0.71656
O         -4.05376        1.58767       -0.55862
N         -5.43538        0.25260       -1.79630
H         -6.12392       -0.49477       -1.73398
O         -5.75786        1.27355       -2.64692
H         -5.18521        1.16728       -3.42144
H          3.67484        0.56848       -0.12756
H          2.67620        0.79753       -1.58065
N          0.59285        1.99172       -0.42651
C          1.90430        1.75496        0.19855
C          2.55851        3.13900        0.00267
C          1.93999        3.61979       -1.31247
O          0.84832        2.72078       -1.57777
H          1.79403        1.58116        1.27171
C          4.07919        3.18195        0.02530
H          2.19187        3.77439        0.82407
H          1.55944        4.64894       -1.24868
H          2.63169        3.53641       -2.16280
O          4.55492        4.49999       -0.14161
H          4.44887        2.73260        0.96475
H          4.49236        2.59604       -0.80905
H          4.24417        5.02464        0.60667
O          2.86735       -1.64995       -1.06889
S          2.61390       -3.30613       -1.02305
O          3.48302       -3.78531        0.05416
O          1.17261       -3.44493       -0.72849
O          3.01055       -3.70297       -2.36817
H         -2.62860       -4.05364        1.19024
H          1.76947       -0.65273        3.85366
