59
ZTX_ketone_264_solv.log	Energy: -1435158.0302493
C          0.89543       -2.10124        0.12800
N          0.41624       -2.44105        1.44657
C         -0.26536       -1.59187        2.21378
C         -0.03399       -2.29089       -1.09510
H          1.71250       -2.79167       -0.10054
N         -0.87724       -2.00844        3.30485
H         -0.92511       -2.99997        3.52075
H          0.57482       -3.38489        1.78865
N         -0.35534       -0.29992        1.83459
C         -0.51125        1.06145       -0.06493
C         -1.90108        0.98422        0.60140
C         -1.54768        0.52573        2.02881
O         -0.20066        1.60416       -1.08310
H         -2.35641       -0.05339        2.48884
H         -1.32337        1.39860        2.65679
O          0.40815       -2.89912       -2.04943
C          1.43062       -0.67025        0.09330
C          0.50563        0.30815        0.83532
N          1.46002        1.22382        1.41315
C          2.69080        0.70088        1.43975
N          2.70793       -0.48567        0.79166
H          1.53627       -0.33963       -0.95221
N          3.72248        1.26157        2.02263
H          1.18920        2.04663        1.94637
C          3.89940       -1.20992        0.45235
H          4.67093        0.97424        1.75505
C         -2.82004       -0.02306       -0.11666
O          4.50641       -0.74254       -0.73938
H          4.60448       -1.16789        1.29092
H          3.63913       -2.25599        0.26798
C          5.54115        0.11551       -0.62358
O          5.96161        0.55086        0.43283
N          6.00549        0.44097       -1.84487
H          5.76467       -0.12429       -2.65674
O          7.18896        1.11681       -1.91658
H          6.96056        2.04175       -2.09616
H         -3.75382       -0.03047        0.46197
H         -3.04073        0.37392       -1.11573
N         -1.18583       -1.54215       -1.17493
C         -2.31237       -1.45731       -0.23362
C         -3.30803       -2.42852       -0.91004
C         -2.98265       -2.26416       -2.39566
O         -1.74615       -1.53136       -2.44256
H         -2.04113       -1.87962        0.73639
C         -4.76927       -2.21684       -0.57383
H         -3.02303       -3.44087       -0.58688
H         -2.85767       -3.22971       -2.90593
H         -3.72707       -1.65878       -2.93216
O         -4.92430       -2.35283        0.82261
H         -5.09926       -1.22177       -0.92193
H         -5.36960       -2.96611       -1.12091
H         -5.83650       -2.13544        1.04573
O         -2.54880        2.22809        0.74306
S         -2.79121        3.36623       -0.47031
O         -3.02873        2.61275       -1.70723
O         -3.96465        4.05386        0.06804
O         -1.56430        4.16865       -0.46871
H          3.59798        2.16245        2.47560
H         -1.26191       -1.34676        3.97147
