59
ZTX_ketone_55_solv.log	Energy: -1435167.2209726
C          0.90362       -1.83380        0.96215
N          0.34741       -1.56312        2.26560
C         -0.42371       -0.50682        2.51788
C          0.06834       -2.62435       -0.07643
H          1.75745       -2.50097        1.11253
N         -1.09608       -0.41935        3.64957
H         -1.11120       -1.20286        4.29609
H          0.52999       -2.22389        3.01601
N         -0.54359        0.45353        1.57753
C         -0.61043        0.76842       -0.73789
C         -2.02984        0.93695       -0.16964
C         -1.79308        1.17837        1.33510
O         -0.29170        0.74746       -1.89066
H         -2.60397        0.76197        1.94433
H         -1.68569        2.24144        1.57897
O          0.59897       -3.57752       -0.61216
C          1.38411       -0.54616        0.29810
C          0.36787        0.59498        0.44718
N          1.22987        1.74309        0.57211
C          2.48512        1.39025        0.85314
N          2.59187        0.03989        0.89172
H          1.55903       -0.72911       -0.77472
N          3.46550        2.23268        1.07577
H          0.88100        2.69190        0.42957
C          3.81899       -0.68186        1.05126
H          4.43623        1.91108        0.98594
C         -2.85323       -0.33687       -0.42802
O          4.48659       -0.90577       -0.18021
H          4.46720       -0.15127        1.75833
H          3.60007       -1.67377        1.45713
C          5.46845       -0.05767       -0.52077
O          5.80171        0.91425        0.14010
N          6.09138       -0.41544       -1.66051
H          6.70066        0.26889       -2.10406
O          5.53902       -1.34851       -2.49253
H          6.04812       -2.16269       -2.36021
H         -3.85286       -0.15083       -0.01534
H         -2.95807       -0.44642       -1.51687
N         -1.10094       -2.07862       -0.55587
C         -2.30177       -1.63184        0.16836
C         -3.20149       -2.87816       -0.01028
C         -2.77168       -3.40880       -1.38059
O         -1.56262       -2.70065       -1.70572
H         -2.08997       -1.53293        1.23576
C         -4.69868       -2.70362        0.17772
H         -2.87379       -3.58938        0.76168
H         -2.57210       -4.48995       -1.36477
H         -3.49604       -3.17567       -2.17095
O         -5.26479       -2.00115       -0.90645
H         -5.14925       -3.70775        0.27027
H         -4.87500       -2.17942        1.13471
H         -6.21100       -1.91714       -0.74400
O         -2.72271        1.96558       -0.83750
S         -2.18674        3.54727       -0.70634
O         -2.89216        4.08435        0.45957
O         -0.72744        3.42174       -0.50946
O         -2.59043        4.10346       -1.99140
H          3.27300        3.22900        1.02811
H         -1.55494        0.44478        3.91921
