59
ZTX_ketone_121_solv.log	Energy: -1435166.0654077
C         -1.32674        1.46391       -0.52349
N         -1.44859        1.36503        0.91050
C         -0.77668        0.46411        1.62632
C         -0.19960        2.32589       -1.14048
H         -2.22802        1.97150       -0.88024
N         -0.75654        0.52619        2.94295
H         -1.16741        1.32063        3.42466
H         -2.13849        1.94932        1.37674
N         -0.06796       -0.48243        0.97678
C          1.12780       -0.97032       -0.96609
C          2.11226       -0.83913        0.21186
C          1.21641       -0.99312        1.45693
O          1.40403       -1.10659       -2.12193
H          1.58049       -0.38589        2.29442
H          1.13224       -2.03315        1.79231
O         -0.51533        3.17107       -1.95271
C         -1.26215        0.07385       -1.15875
C         -0.30988       -0.86851       -0.40990
N         -1.00855       -2.12931       -0.50977
C         -2.31414       -1.93208       -0.72874
N         -2.53060       -0.65085       -1.08805
H         -0.94658        0.16009       -2.21090
N         -3.23972       -2.85797       -0.63800
H         -0.59325       -2.98871       -0.15023
C         -3.75900       -0.08488       -1.56574
H         -4.21678       -2.56349       -0.57236
C          2.80057        0.53566        0.17660
O         -4.39250        0.68466       -0.56061
H         -3.53602        0.61518       -2.37823
H         -4.42336       -0.87173       -1.94237
C         -5.09579        0.00960        0.36171
O         -5.38856       -1.17101        0.27289
N         -5.41885        0.77226        1.42477
H         -6.13890        0.43454        2.06015
O         -5.23069        2.12601        1.39543
H         -4.44711        2.29883        1.93968
H          3.49070        0.54701        1.03133
H          3.40141        0.58515       -0.74361
N          1.11023        1.91616       -0.98453
C          1.88164        1.75488        0.25911
C          2.62792        3.10690        0.30443
C          2.79915        3.44926       -1.17863
O          1.97430        2.51078       -1.89050
H          1.21186        1.70472        1.12165
C          3.92772        3.13915        1.09561
H          1.93599        3.83090        0.76211
H          2.47732        4.47349       -1.41475
H          3.82794        3.29718       -1.53439
O          4.51369        4.42227        1.06197
H          3.74114        2.80482        2.13216
H          4.66355        2.45259        0.65162
H          3.90887        5.03665        1.49552
O          3.15571       -1.77823        0.10460
S          2.80822       -3.41294        0.23376
O          2.94717       -3.71034        1.66129
O          1.42153       -3.52782       -0.26330
O          3.82626       -4.00085       -0.62780
H         -2.98356       -3.77777       -0.29135
H         -0.38113       -0.23894        3.49417
