59
ZTX_ketone_52_solv.log	Energy: -1435169.1275346
C          1.09882       -1.66326       -0.30537
N          1.15120       -1.52903        1.12989
C          0.52027       -0.55823        1.78712
C         -0.06532       -2.44900       -0.95610
H          1.97426       -2.25009       -0.60138
N          0.41268       -0.59008        3.10125
H          0.72101       -1.40527        3.62287
H          1.68834       -2.20995        1.65996
N         -0.05328        0.43993        1.08248
C         -1.10564        0.95815       -0.93642
C         -2.15756        0.94760        0.18805
C         -1.31830        1.06445        1.47576
O         -1.30831        1.07701       -2.10935
H         -1.77510        0.51386        2.30647
H         -1.16873        2.10424        1.78839
O          0.21600       -3.34515       -1.72494
C          1.18116       -0.29409       -0.98049
C          0.28861        0.75308       -0.30073
N          1.09928        1.94222       -0.41008
C          2.38236        1.63685       -0.62701
N          2.50841        0.31812       -0.90162
H          0.88950       -0.38385       -2.03969
N          3.37570        2.49102       -0.60129
H          0.74365        2.85301       -0.12036
C          3.64537       -0.28991       -1.54065
H          4.33514        2.12765       -0.57781
C         -2.96284       -0.36262        0.14682
O          4.44720       -1.02729       -0.63817
H          3.28415       -1.01865       -2.27487
H          4.24475        0.46968       -2.05749
C          5.39430       -0.35138        0.03959
O          5.62353        0.83626       -0.09430
N          6.01681       -1.17556        0.90722
H          5.94658       -2.18455        0.78796
O          7.17343       -0.72833        1.48013
H          6.94591       -0.48607        2.39064
H         -3.69557       -0.28961        0.96194
H         -3.51525       -0.38345       -0.80432
N         -1.34091       -1.92123       -0.88401
C         -2.16452       -1.65674        0.30754
C         -3.02960       -2.93552        0.33732
C         -3.15382       -3.29604       -1.14605
O         -2.20198       -2.46035       -1.82706
H         -1.54628       -1.64839        1.20910
C         -4.35617       -2.82943        1.06334
H         -2.43263       -3.70790        0.84455
H         -2.92229       -4.35230       -1.34365
H         -4.14168       -3.05227       -1.56206
O         -4.93366       -4.11750        1.07394
H         -4.18626       -2.45473        2.08974
H         -5.01519       -2.10837        0.54823
H         -5.82366       -4.04063        1.43572
O         -3.10774        1.96974        0.00009
S         -2.62429        3.57243        0.08859
O         -2.80855        3.93965        1.49465
O         -1.20949        3.54648       -0.33697
O         -3.54179        4.20974       -0.84786
H          3.19704        3.45629       -0.34117
H          0.07994        0.21927        3.61538
