59
ZTX_ketone_287_solv.log	Energy: -1435157.7850939
C          1.33566        1.37776        0.50590
N          1.47090        1.54117       -0.92188
C          0.85590        0.75565       -1.80402
C          0.15810        2.05555        1.24778
H          2.20888        1.85275        0.96441
N          0.82486        1.07043       -3.08421
H          1.18270        1.96709       -3.40065
H          2.04954        2.30210       -1.26725
N          0.22499       -0.35091       -1.35924
C         -0.99031       -1.19734        0.45241
C         -1.96799       -0.90701       -0.70716
C         -1.02463       -0.86032       -1.92215
O         -1.23888       -1.55887        1.56370
H         -1.39943       -0.19964       -2.71201
H         -0.88955       -1.87212       -2.32850
O          0.41767        2.71769        2.23236
C          1.33057       -0.10400        0.88608
C          0.45566       -0.94465       -0.05359
N          1.21758       -2.17332       -0.14149
C          2.49932       -1.96135        0.19753
N          2.63773       -0.74690        0.76926
H          0.96545       -0.21892        1.91927
N          3.47299       -2.81841        0.02224
H          0.94412       -2.92503       -0.77092
C          3.74483       -0.34031        1.59435
H          4.44000       -2.48937        0.12872
C         -2.70724        0.42918       -0.49825
O          4.62094        0.54872        0.92974
H          3.35020        0.21865        2.45014
H          4.28817       -1.22104        1.95878
C          5.61286        0.00914        0.19561
O          5.78007       -1.18569        0.03319
N          6.40903        0.98213       -0.28865
H          6.09616        1.95102       -0.28873
O          7.30227        0.64385       -1.26386
H          8.16825        0.59384       -0.83105
H         -3.34145        0.55282       -1.38724
H         -3.36716        0.31355        0.37145
N         -1.12652        1.64912        0.95704
C         -1.84588        1.67937       -0.32624
C         -2.65915        2.98049       -0.15647
C         -2.93867        2.99804        1.34858
O         -2.04772        2.02591        1.92255
H         -1.14838        1.82276       -1.15532
C         -3.89719        3.11651       -1.03462
H         -1.98287        3.81147       -0.40609
H         -2.74830        3.98095        1.80217
H         -3.96129        2.67396        1.59262
O         -4.46877        4.40349       -0.93899
H         -3.61055        2.97010       -2.08719
H         -4.63721        2.33833       -0.77955
H         -4.91402        4.47397       -0.08604
O         -2.88894       -1.94048       -0.97347
S         -3.85127       -2.73178        0.15450
O         -2.98365       -3.77311        0.71298
O         -4.28374       -1.71267        1.11843
O         -4.90309       -3.22983       -0.73142
H          3.28656       -3.69825       -0.44944
H          0.49937        0.40412       -3.77720
