59
ZTX_ketone_66_solv.log	Energy: -1435169.2298061
C          0.69652       -2.00725        0.75981
N          0.10410       -1.80631        2.05953
C         -0.61086       -0.72607        2.37003
C         -0.14076       -2.65486       -0.37190
H          1.50097       -2.73801        0.88631
N         -1.31320       -0.68184        3.48565
H         -1.40299       -1.51062        4.06631
H          0.22280       -2.53061        2.76255
N         -0.64171        0.30655        1.50285
C         -0.59600        0.80816       -0.77966
C         -2.02453        1.02262       -0.24850
C         -1.83482        1.12556        1.27887
O         -0.23405        0.85830       -1.91864
H         -2.69417        0.71242        1.82015
H         -1.67537        2.15659        1.61511
O          0.35110       -3.59278       -0.96721
C          1.27950       -0.70227        0.22156
C          0.32195        0.48155        0.42185
N          1.24017        1.56291        0.67268
C          2.45701        1.11572        0.98493
N          2.48942       -0.23740        0.91149
H          1.49236       -0.80890       -0.85435
N          3.46653        1.87927        1.32947
H          0.94959        2.53925        0.60311
C          3.66886       -1.03779        1.05685
H          4.42196        1.51065        1.25592
C         -2.91386       -0.17159       -0.63190
O          4.39224       -1.17701       -0.15479
H          4.30443       -0.61420        1.84364
H          3.37814       -2.05056        1.35096
C          5.45946       -0.37663       -0.34555
O          5.78294        0.53245        0.39729
N          6.13156       -0.76022       -1.44789
H          5.70204       -1.39150       -2.12128
O          7.07382        0.09267       -1.94608
H          7.93231       -0.26771       -1.67630
H         -3.90525        0.04018       -0.20989
H         -3.00210       -0.18109       -1.72827
N         -1.24935       -1.99000       -0.84838
C         -2.45662       -1.54397       -0.13757
C         -3.42388       -2.69819       -0.49002
C         -2.95195       -3.11843       -1.88313
O         -1.68547       -2.46455       -2.07555
H         -2.29776       -1.55934        0.94264
C         -4.90025       -2.37072       -0.41188
H         -3.21228       -3.50820        0.22365
H         -2.82193       -4.20641       -1.97051
H         -3.61461       -2.76181       -2.68451
O         -5.18917       -1.95583        0.90615
H         -5.15570       -1.58737       -1.14762
H         -5.47691       -3.27231       -0.68663
H         -6.11063       -1.67473        0.93727
O         -2.62757        2.14231       -0.85363
S         -2.00111        3.67246       -0.58051
O         -2.31967        4.34931       -1.83114
O         -2.71704        4.16313        0.59916
O         -0.56123        3.43846       -0.34506
H          3.33006        2.88546        1.35828
H         -1.74562        0.18203        3.79704
