59
ZTX_ketone_207_solv.log	Energy: -1435167.1579016
C          0.67405       -2.01342        0.73880
N          0.07518       -1.81857        2.03659
C         -0.63271       -0.73520        2.35148
C         -0.16045       -2.64662       -0.40374
H          1.47090       -2.75259        0.86450
N         -1.34290       -0.69390        3.46214
H         -1.44134       -1.52564        4.03722
H          0.18656       -2.54829        2.73521
N         -0.65048        0.30412        1.49157
C         -0.57759        0.82795       -0.78485
C         -2.01020        1.04750       -0.26735
C         -1.83834        1.13010        1.26321
O         -0.20431        0.88458       -1.91982
H         -2.70546        0.71269        1.78933
H         -1.68051        2.15654        1.61383
O          0.33265       -3.58067       -1.00473
C          1.27317       -0.70916        0.21594
C          0.32520        0.48186        0.42196
N          1.25088        1.55188        0.69270
C          2.46161        1.09035        1.00743
N          2.48363       -0.26181        0.91657
H          1.49110       -0.80778       -0.85962
N          3.47496        1.84130        1.36809
H          0.96879        2.53138        0.63301
C          3.65484       -1.07422        1.06554
H          4.42789        1.46636        1.29696
C         -2.90076       -0.13710       -0.67679
O          4.38462       -1.21880       -0.14112
H          4.28909       -0.65961        1.85814
H          3.35387       -2.08558        1.35363
C          5.43465       -0.39829       -0.34391
O          5.77600        0.48797        0.41788
N          6.01865       -0.68384       -1.52400
H          5.83791       -1.57386       -1.98429
O          7.23184       -0.11487       -1.78472
H          7.06258        0.60022       -2.41689
H         -3.90281        0.09540       -0.29128
H         -2.95854       -0.14532       -1.77518
N         -1.26466       -1.97619       -0.87893
C         -2.46556       -1.51329       -0.17006
C         -3.43723       -2.66117       -0.51973
C         -3.01994       -3.00737       -1.94600
O         -1.70283       -2.44940       -2.10874
H         -2.31033       -1.52582        0.91072
C         -4.92333       -2.38561       -0.34785
H         -3.17212       -3.49727        0.14501
H         -2.98156       -4.09126       -2.12254
H         -3.66467       -2.53473       -2.70186
O         -5.27753       -2.15813        0.99901
H         -5.24276       -1.55302       -0.99911
H         -5.47821       -3.27647       -0.67820
H         -4.98296       -1.27564        1.25366
O         -2.59770        2.17856       -0.86604
S         -1.96108        3.70018       -0.56551
O         -2.25791        4.39621       -1.81074
O         -2.68715        4.18152        0.61169
O         -0.52659        3.44906       -0.31554
H          3.34605        2.84790        1.41197
H         -1.76638        0.17242        3.77920
