59
ZTX_ketone_112_solv.log	Energy: -1435163.7568317
C         -0.94868        1.56873        1.17416
N         -0.26139        1.31626        2.41743
C          0.62108        0.33089        2.57093
C         -0.27393        2.45975        0.10195
H         -1.84565        2.14498        1.41986
N          1.38747        0.27293        3.64313
H          1.38092        1.03365        4.31641
H         -0.45482        1.92562        3.20745
N          0.75079       -0.58261        1.58585
C          0.63253       -0.86076       -0.73028
C          2.10778       -0.90755       -0.29607
C          2.03224       -1.19007        1.21792
O          0.20935       -0.85276       -1.84893
H          2.85477       -0.71049        1.76147
H          2.04304       -2.26184        1.44738
O         -0.91364        3.39168       -0.34163
C         -1.36462        0.26026        0.50282
C         -0.24546       -0.78879        0.54175
N         -0.99183       -2.00736        0.72857
C         -2.23938       -1.76879        1.12655
N         -2.48154       -0.43132        1.16161
H         -1.63324        0.45137       -0.54853
N         -3.10008       -2.70621        1.43846
H         -0.55394       -2.92339        0.62029
C         -3.80452        0.10607        1.07204
H         -4.05535       -2.49104        1.70398
C          2.78852        0.43961       -0.59401
O         -4.25978       -0.08335       -0.26186
H         -4.47480       -0.39618        1.78267
H         -3.78469        1.17401        1.31946
C         -5.42079        0.51493       -0.58024
O         -6.06320        1.20580        0.18085
N         -5.77583        0.18160       -1.84761
H         -5.05903       -0.14952       -2.49067
O         -6.75801        0.93941       -2.42789
H         -7.55030        0.38226       -2.43991
H          3.83055        0.32811       -0.26495
H          2.79108        0.57651       -1.68559
N          0.87552        2.00672       -0.51392
C          2.18169        1.67240        0.07728
C          2.95395        2.98347       -0.18997
C          2.31843        3.49329       -1.48703
O          1.15529        2.67363       -1.69615
H          2.09272        1.54851        1.15928
C          4.47174        2.87938       -0.24668
H          2.69389        3.67036        0.63027
H          2.01668        4.54834       -1.42180
H          2.96555        3.35036       -2.36380
O          5.06122        4.13924       -0.48439
H          4.84853        2.42430        0.68706
H          4.78016        2.23247       -1.08123
H          4.85483        4.71106        0.26521
O          2.82550       -1.85848       -1.04647
S          2.43673       -3.48362       -0.91009
O          2.74655       -3.97557       -2.24650
O          3.30375       -3.98347        0.15919
O          1.00117       -3.48383       -0.55867
H         -2.81564       -3.68095        1.40619
H          1.93619       -0.55583        3.84930
