59
ZTX_ketone_152_solv.log	Energy: -1435156.9170287
C          0.86021       -2.08620        0.37339
N          0.40887       -2.29542        1.72863
C         -0.21765       -1.35867        2.43841
C         -0.10828       -2.34506       -0.80626
H          1.64763       -2.82150        0.18323
N         -0.79323       -1.65234        3.58745
H         -0.86021       -2.61782        3.89611
H          0.56883       -3.20351        2.15610
N         -0.29154       -0.10618        1.94211
C         -0.46755        1.08556       -0.06562
C         -1.83853        1.11184        0.64528
C         -1.45779        0.76321        2.09579
O         -0.17532        1.52191       -1.13867
H         -2.26610        0.24459        2.62360
H         -1.19667        1.67969        2.64233
O          0.28349       -3.05010       -1.71396
C          1.43266       -0.67937        0.19569
C          0.55543        0.38768        0.87118
N          1.54963        1.32535        1.33651
C          2.77165        0.78324        1.35503
N          2.73622       -0.46486        0.83379
H          1.51316       -0.44739       -0.87820
N          3.84139        1.37885        1.82407
H          1.32144        2.21407        1.77515
C          3.89575       -1.24850        0.51760
H          4.76808        1.04845        1.53203
C         -2.80846        0.08046        0.03763
O          4.43884       -0.93299       -0.75240
H          4.64782       -1.12487        1.30566
H          3.60949       -2.30316        0.47197
C          5.50437       -0.10749       -0.79382
O          5.97068        0.46690        0.17280
N          5.99394       -0.05259       -2.04770
H          5.43711       -0.38861       -2.83109
O          6.88833        0.93811       -2.33547
H          7.76013        0.51509       -2.36083
H         -3.72735        0.15473        0.63601
H         -3.04521        0.40373       -0.98428
N         -1.22923       -1.55217       -0.92665
C         -2.34271       -1.37352        0.01940
C         -3.37221       -2.35748       -0.57618
C         -3.05766       -2.30919       -2.07495
O         -1.80525       -1.61008       -2.18535
H         -2.06292       -1.73172        1.01349
C         -4.82576       -2.08811       -0.24000
H         -3.11876       -3.35537       -0.18841
H         -2.95780       -3.31067       -2.51681
H         -3.79462       -1.72712       -2.64612
O         -5.58490       -3.14902       -0.77990
H         -4.94510       -2.02378        0.85743
H         -5.14266       -1.12112       -0.66874
H         -6.51753       -2.92937       -0.67669
O         -2.44705        2.38212        0.70054
S         -2.65458        3.44343       -0.58568
O         -1.38612        4.17371       -0.66717
O         -2.96320        2.61951       -1.76052
O         -3.77533        4.23135       -0.07305
H          3.75608        2.32401        2.18695
H         -1.12803       -0.91935        4.20438
