59
ZTX_ketone_10_solv.log	Energy: -1435166.4581031
C         -1.22028        1.35267        1.19988
N         -0.52738        1.11215        2.44241
C          0.41741        0.18361        2.57912
C         -0.60306        2.33192        0.17237
H         -2.16504        1.84455        1.44768
N          1.16376        0.14025        3.66618
H          1.09336        0.87514        4.36375
H         -0.76971        1.68196        3.24847
N          0.63159       -0.68665        1.56909
C          0.59166       -0.84113       -0.76502
C          2.05586       -0.80002       -0.29139
C          1.96485       -1.17140        1.20283
O          0.19674       -0.81181       -1.89366
H          2.73612       -0.66310        1.79308
H          2.05245       -2.25033        1.37441
O         -1.30343        3.22712       -0.25330
C         -1.52079        0.03810        0.48536
C         -0.31748       -0.91213        0.48434
N         -0.96295       -2.19780        0.57411
C         -2.21921       -2.08417        1.00671
N         -2.55850       -0.77877        1.13315
H         -1.80655        0.23969       -0.55894
N         -3.00022       -3.10456        1.26798
H         -0.45457       -3.06517        0.39564
C         -3.91025       -0.33059        1.32419
H         -3.97400       -2.98242        1.52492
C          2.63977        0.60815       -0.49798
O         -4.69956       -0.46213        0.15707
H         -4.39495       -0.94358        2.09141
H         -3.89848        0.70888        1.66920
C         -4.68420        0.57033       -0.71637
O         -4.05369        1.59319       -0.55889
N         -5.43702        0.25934       -1.79592
H         -6.12635       -0.48726       -1.73341
O         -5.75835        1.28036       -2.64688
H         -5.18536        1.17360       -3.42108
H          3.67378        0.56443       -0.12960
H          2.67342        0.79596       -1.58136
N          0.59469        1.99412       -0.42543
C          1.90549        1.75404        0.19920
C          2.56202        3.13704        0.00632
C          1.94122        3.62422       -1.30615
O          0.85186        2.72364       -1.57571
H          1.79502        1.57923        1.27216
C          4.07729        3.16561        0.02791
H          2.20413        3.77295        0.82968
H          1.55788        4.65187       -1.23511
H          2.63201        3.54757       -2.15774
O          4.47374        4.51815       -0.05145
H          4.44097        2.69169        0.95842
H          4.48157        2.58828       -0.82227
H          5.43294        4.54124       -0.14261
O          2.86327       -1.65175       -1.06978
S          2.60771       -3.30762       -1.02468
O          3.47660       -3.78842        0.05199
O          1.16634       -3.44465       -0.72971
O          3.00343       -3.70430       -2.37012
H         -2.63534       -4.04916        1.18953
H          1.76821       -0.65356        3.85324
