59
ZTX_ketone_228_solv.log	Energy: -1435167.2210605
C          0.90377       -1.83364        0.96185
N          0.34755       -1.56310        2.26531
C         -0.42339       -0.50672        2.51776
C          0.06856       -2.62409       -0.07687
H          1.75756       -2.50089        1.11213
N         -1.09559       -0.41920        3.64955
H         -1.11071       -1.20274        4.29605
H          0.53025       -2.22387        3.01569
N         -0.54334        0.45371        1.57749
C         -0.61055        0.76832       -0.73797
C         -2.02988        0.93685       -0.16954
C         -1.79292        1.17844        1.33514
O         -0.29197        0.74725       -1.89079
H         -2.60370        0.76204        1.94454
H         -1.68557        2.24153        1.57891
O          0.59952       -3.57683       -0.61307
C          1.38426       -0.54590        0.29796
C          0.36792        0.59512        0.44699
N          1.22979        1.74335        0.57165
C          2.48508        1.39065        0.85277
N          2.59188        0.04029        0.89174
H          1.55932       -0.72877       -0.77486
N          3.46541        2.23319        1.07511
H          0.88080        2.69209        0.42891
C          3.81902       -0.68128        1.05174
H          4.43615        1.91163        0.98539
C         -2.85327       -0.33701       -0.42773
O          4.48665       -0.90589       -0.17959
H          4.46716       -0.15016        1.75846
H          3.60017       -1.67293        1.45828
C          5.46840       -0.05786       -0.52067
O          5.80175        0.91431        0.13978
N          6.09109       -0.41602       -1.66037
H          6.70024        0.26817       -2.10432
O          5.53846       -1.34928       -2.49197
H          6.04766       -2.16341       -2.35971
H         -3.85284       -0.15098       -0.01489
H         -2.95828       -0.44660       -1.51656
N         -1.10101       -2.07875       -0.55587
C         -2.30168       -1.63196        0.16858
C         -3.20146       -2.87826       -0.00986
C         -2.77186       -3.40899       -1.38020
O         -1.56288       -2.70081       -1.70561
H         -2.08967       -1.53303        1.23594
C         -4.69862       -2.70369        0.17833
H         -2.87369       -3.58946        0.76209
H         -2.57222       -4.49012       -1.36434
H         -3.49637       -3.17595       -2.17046
O         -5.26486       -2.00132       -0.90584
H         -5.14918       -3.70781        0.27104
H         -4.87480       -2.17939        1.13529
H         -6.21105       -1.91731       -0.74329
O         -2.72284        1.96542       -0.83740
S         -2.18682        3.54711       -0.70644
O         -2.59057        4.10317       -1.99154
O         -2.89216        4.08431        0.45945
O         -0.72750        3.42159       -0.50965
H          3.27284        3.22949        1.02732
H         -1.55427        0.44500        3.91930
