59
ZTX_ketone_100_solv.log	Energy: -1435167.9339175
C          0.71814       -1.98553        0.91099
N          0.17581       -1.72162        2.22201
C         -0.52864       -0.62727        2.50475
C         -0.16572       -2.68680       -0.15130
H          1.52569       -2.71179        1.04152
N         -1.19517       -0.52676        3.63839
H         -1.26463       -1.32454        4.26365
H          0.31964       -2.41313        2.95276
N         -0.58762        0.36125        1.58937
C         -0.59610        0.78496       -0.70724
C         -2.01051        1.02117       -0.15045
C         -1.78540        1.17373        1.36730
O         -0.26104        0.79530       -1.85558
H         -2.63127        0.77838        1.94232
H         -1.61898        2.21500        1.66675
O          0.28517       -3.67606       -0.69306
C          1.28708       -0.71218        0.28813
C          0.34969        0.49001        0.48007
N          1.28605        1.56786        0.67131
C          2.51269        1.11886        0.93863
N          2.53367       -0.23568        0.89940
H          1.44888       -0.86969       -0.79056
N          3.54138        1.88410        1.21724
H          1.00306        2.54462        0.58183
C          3.71781       -1.03913        0.98354
H          4.49050        1.50837        1.11138
C         -2.91065       -0.18205       -0.48071
O          4.36644       -1.19758       -0.26743
H          4.40214       -0.60944        1.72463
H          3.44243       -2.04742        1.30632
C          5.40762       -0.38690       -0.54359
O          5.79983        0.50591        0.18524
N          5.91652       -0.68920       -1.75410
H          5.70346       -1.58335       -2.19203
O          7.11667       -0.13335       -2.09268
H          6.91544        0.58044       -2.71676
H         -3.90498        0.05551       -0.08178
H         -2.99657       -0.24007       -1.57510
N         -1.27212       -2.02658       -0.64436
C         -2.46048       -1.53408        0.07210
C         -3.43696       -2.71027       -0.17674
C         -2.99274       -3.23507       -1.54598
O         -1.74793       -2.57242       -1.82651
H         -2.26844       -1.49304        1.14712
C         -4.92466       -2.43152       -0.04350
H         -3.19262       -3.46346        0.58601
H         -2.83876       -4.32387       -1.54393
H         -3.68357       -2.95855       -2.35202
O         -5.38939       -1.66298       -1.13102
H         -5.45104       -3.40150        0.00307
H         -5.10322       -1.91854        0.91899
H         -6.32450       -1.47920       -0.98850
O         -2.62383        2.12350       -0.77704
S         -1.98322        3.65783       -0.57070
O         -2.32617        4.29372       -1.83636
O         -2.67013        4.19315        0.60705
O         -0.53965        3.42362       -0.35863
H          3.41244        2.89173        1.21945
H         -1.60986        0.35469        3.92342
