59
ZTX_ketone_253_solv.log	Energy: -1435158.3303243
C          1.33536        1.37655        0.50225
N          1.47296        1.53579       -0.92582
C          0.85898        0.74794       -1.80660
C          0.15778        2.05789        1.24105
H          2.20836        1.85216        0.96055
N          0.83074        1.05829       -3.08798
H          1.19158        1.95279       -3.40715
H          2.05400        2.29429       -1.27251
N          0.22582       -0.35623       -1.35909
C         -0.99180       -1.19723        0.45346
C         -1.96817       -0.90905       -0.70773
C         -1.02367       -0.86588       -1.92196
O         -1.24165       -1.55511        1.56561
H         -1.39721       -0.20662       -2.71361
H         -0.88917       -1.87871       -2.32593
O          0.41796        2.72169        2.22450
C          1.32913       -0.10411        0.88668
C          0.45482       -0.94680       -0.05171
N          1.21627       -2.17603       -0.13574
C          2.49789       -1.96350        0.20350
N          2.63614       -0.74788        0.77271
H          0.96293       -0.21601        1.91982
N          3.47158       -2.82101        0.03053
H          0.94315       -2.92903       -0.76378
C          3.74299       -0.33957        1.59729
H          4.43853       -2.49168        0.13648
C         -2.70658        0.42820       -0.50257
O          4.61877        0.54881        0.93137
H          3.34815        0.22055        2.45222
H          4.28660       -1.21959        1.96305
C          5.61035        0.00850        0.19731
O          5.77785       -1.18648        0.03649
N          6.40576        0.98111       -0.28895
H          6.09260        1.94990       -0.29007
O          7.29851        0.64182       -1.26424
H          8.16484        0.59305       -0.83199
H         -3.34005        0.54968       -1.39247
H         -3.36700        0.31581        0.36725
N         -1.12759        1.65472        0.95008
C         -1.84522        1.67871       -0.33486
C         -2.65866        2.98034       -0.17098
C         -2.92987        3.01783        1.33458
O         -2.04942        2.03750        1.91219
H         -1.14597        1.81713       -1.16319
C         -3.91032        3.11185       -1.02648
H         -1.98066        3.80757       -0.43369
H         -2.72132        4.00180        1.77757
H         -3.95492        2.71152        1.58794
O         -4.56416        4.33976       -0.78929
H         -3.64562        2.99154       -2.09259
H         -4.63339        2.32308       -0.77185
H         -3.96392        5.05032       -1.04660
O         -2.88976       -1.94226       -0.97263
S         -3.85239       -2.73155        0.15653
O         -2.98460       -3.77131        0.71771
O         -4.28571       -1.71046        1.11792
O         -4.90341       -3.23197       -0.72898
H          3.28533       -3.70181       -0.43944
H          0.50649        0.38953       -3.77923
