59
ZTX_ketone_166_solv.log	Energy: -1435167.8507411
C         -1.54703        1.09780       -0.55652
N         -1.58366        1.09707        0.88601
C         -0.73801        0.38745        1.63044
C         -0.64383        2.10522       -1.30478
H         -2.55058        1.38683       -0.88301
N         -0.68559        0.55205        2.93781
H         -1.21250        1.29892        3.38086
H         -2.35772        1.57545        1.34083
N          0.10679       -0.46790        1.01818
C          1.31214       -0.79878       -0.95524
C          2.28753       -0.40364        0.16874
C          1.48693       -0.67662        1.45841
O          1.56563       -0.92849       -2.11708
H          1.74600        0.03150        2.25420
H          1.63217       -1.69476        1.83730
O         -1.14859        2.75077       -2.20349
C         -1.24434       -0.29775       -1.09626
C         -0.09420       -0.97296       -0.33633
N         -0.50592       -2.35484       -0.34722
C         -1.81477       -2.46493       -0.58757
N         -2.33408       -1.26686       -0.93050
H         -0.97713       -0.23050       -2.16280
N         -2.48920       -3.58697       -0.50885
H          0.11645       -3.10039       -0.03480
C         -3.66121       -1.09859       -1.46815
H         -3.48577       -3.62459       -0.69815
C          2.67121        1.08053        0.04333
O         -4.64374       -1.13242       -0.45261
H         -3.70074       -0.15951       -2.03301
H         -3.91018       -1.92700       -2.14272
C         -4.97134        0.02245        0.16589
O         -4.59559        1.12337       -0.17577
N         -5.75074       -0.24824        1.23852
H         -6.21871       -1.15090        1.29954
O         -6.44146        0.80001        1.78227
H         -5.99637        1.00971        2.61686
H          3.35559        1.28439        0.87709
H          3.23039        1.20233       -0.89619
N          0.71836        2.03935       -1.13410
C          1.52134        2.08677        0.09467
C          1.97088        3.56469        0.06638
C          2.09511        3.84658       -1.43094
O          1.43016        2.75189       -2.08672
H          0.88908        1.94548        0.97360
C          3.21459        3.89680        0.87454
H          1.12977        4.14839        0.47206
H          1.61814        4.79316       -1.72165
H          3.13761        3.83813       -1.78026
O          3.09157        3.50283        2.22390
H          4.09007        3.37049        0.46580
H          3.41928        4.97835        0.78510
H          2.35860        3.99457        2.61457
O          3.50093       -1.10931        0.05644
S          3.51187       -2.77301        0.25770
O          3.75608       -2.97316        1.68776
O          2.16602       -3.19896       -0.17895
O          4.60286       -3.16991       -0.62358
H         -2.01591       -4.44002       -0.22643
H         -0.15984       -0.09054        3.52214
