59
ZTX_ketone_128_solv.log	Energy: -1435167.2646787
C          0.77802       -1.85056        0.94202
N          0.22564       -1.55087        2.24068
C         -0.47199       -0.44440        2.49172
C         -0.10003       -2.56904       -0.11256
H          1.58317       -2.57519        1.09571
N         -1.14231       -0.31225        3.61991
H         -1.21981       -1.09352        4.26459
H          0.35889       -2.22558        2.98878
N         -0.52008        0.52331        1.55314
C         -0.54769        0.85140       -0.76065
C         -1.95630        1.11884       -0.19882
C         -1.71079        1.33910        1.30782
O         -0.22442        0.81542       -1.91161
H         -2.55439        0.98257        1.91070
H         -1.52666        2.39091        1.55529
O          0.36469       -3.55053       -0.65645
C          1.35190       -0.59381        0.29183
C          0.40819        0.60897        0.43121
N          1.34029        1.69880        0.56951
C          2.56338        1.26604        0.87796
N          2.58396       -0.08872        0.90989
H          1.53266       -0.78276       -0.77892
N          3.58849        2.04420        1.13113
H          1.05445        2.66941        0.43314
C          3.75912       -0.88855        1.08653
H          4.53747        1.66111        1.05373
C         -2.86844       -0.09214       -0.45915
O          4.42616       -1.15588       -0.13610
H          4.43155       -0.39966        1.80141
H          3.47132       -1.86396        1.48973
C          5.45364       -0.36104       -0.47134
O          5.83535        0.59171        0.19108
N          6.06286       -0.75320       -1.60683
H          6.71589       -0.10764       -2.04594
O          5.47062       -1.66099       -2.43899
H          5.92692       -2.50295       -2.28829
H         -3.84482        0.16623       -0.02689
H         -2.99335       -0.18232       -1.54843
N         -1.21881       -1.92709       -0.59970
C         -2.40471       -1.43130        0.11636
C         -3.38538       -2.59671       -0.13339
C         -2.95464       -3.10960       -1.51077
O         -1.69080       -2.47714       -1.78080
H         -2.21154       -1.37722        1.19083
C         -4.86055       -2.26404       -0.02635
H         -3.16072       -3.36489        0.62137
H         -2.83005       -4.20136       -1.53433
H         -3.63952       -2.80015       -2.31298
O         -5.57543       -3.47250       -0.17289
H         -5.06156       -1.79149        0.95299
H         -5.14691       -1.54261       -0.81173
H         -6.51314       -3.25726       -0.23017
O         -2.57225        2.19435       -0.86729
S         -1.92914        3.73599       -0.72927
O         -2.59902        4.31625        0.43692
O         -0.48276        3.50971       -0.52955
O         -2.29134        4.32153       -2.01350
H          3.46076        3.05074        1.08077
H         -1.55326        0.57805        3.88176
