59
ZTX_ketone_181_solv.log	Energy: -1435158.4910232
C          1.33852        1.37121        0.50237
N          1.47163        1.53461       -0.92567
C          0.85437        0.74999       -1.80701
C          0.16479        2.05214        1.24756
H          2.21383        1.84400        0.95912
N          0.82273        1.06431       -3.08731
H          1.18148        1.96039       -3.40442
H          2.05230        2.29368       -1.27177
N          0.22145       -0.35507       -1.36115
C         -0.99154       -1.19982        0.45287
C         -1.97140       -0.90593       -0.70381
C         -1.03100       -0.86082       -1.92116
O         -1.23804       -1.56147        1.56454
H         -1.40614       -0.19848       -2.70948
H         -0.89972       -1.87269       -2.32858
O          0.42962        2.71083        2.23315
C          1.33162       -0.11051        0.88205
C          0.45373       -0.94952       -0.05620
N          1.21378       -2.17917       -0.14596
C          2.49628       -1.96945        0.19103
N          2.63783       -0.75486        0.76225
H          0.96856       -0.22536        1.91597
N          3.46812       -2.82829        0.01432
H          0.93772       -2.93074       -0.77444
C          3.74422       -0.35290        1.59076
H          4.43565       -2.50060        0.11828
C         -2.70659        0.43213       -0.49190
O          4.62075        0.54238        0.93516
H          3.34941        0.20005        2.45029
H          4.28817       -1.23561        1.94941
C          5.59299        0.00911        0.17101
O          5.76745       -1.18435        0.00976
N          6.31171        0.99104       -0.41096
H          6.27333        1.93769       -0.03726
O          7.48992        0.63964       -1.00598
H          7.32480        0.65978       -1.96080
H         -3.34389        0.55647       -1.37866
H         -3.36281        0.31915        0.38093
N         -1.12258        1.65458        0.95837
C         -1.84143        1.68022       -0.32546
C         -2.64799        2.98524       -0.16221
C         -2.91758        3.02628        1.34398
O         -2.04184        2.04122        1.92126
H         -1.14267        1.81611       -1.15450
C         -3.89122        3.11398       -1.01991
H         -1.97081        3.81078       -0.42776
H         -2.70221        4.00955        1.78519
H         -3.94393        2.72589        1.59895
O         -4.41877        4.40560       -0.80425
H         -3.62375        2.95860       -2.08159
H         -4.62704        2.33871       -0.74286
H         -5.26968        4.45747       -1.25367
O         -2.89576       -1.93665       -0.96867
S         -3.85799       -2.72601        0.16090
O         -2.99199       -3.76999        0.71693
O         -4.28569       -1.70619        1.12615
O         -4.91290       -3.22068       -0.72325
H          3.27955       -3.70813       -0.45654
H          0.49452        0.39863       -3.77965
