59
ZTX_ketone_41_solv.log	Energy: -1435167.2940335
C          0.74873       -1.86505        0.96084
N          0.19344       -1.55770        2.25635
C         -0.49964       -0.44702        2.50063
C         -0.13159       -2.58007       -0.09415
H          1.54766       -2.59505        1.12011
N         -1.17596       -0.30812        3.62435
H         -1.26330       -1.08739        4.27009
H          0.31879       -2.23162        3.00645
N         -0.53529        0.51814        1.55915
C         -0.54110        0.85051       -0.75367
C         -1.95176        1.12894       -0.20321
C         -1.71639        1.34529        1.30550
O         -0.20851        0.81262       -1.90195
H         -2.56810        0.99615        1.90126
H         -1.52445        2.39515        1.55553
O          0.32198       -3.57276       -0.62665
C          1.33499       -0.61551        0.30663
C          0.40306        0.59686        0.44536
N          1.34468        1.67668        0.59442
C          2.56426        1.23157        0.89844
N          2.57469       -0.12421        0.92003
H          1.51072       -0.80831       -0.76422
N          3.59550        2.00018        1.15536
H          1.06795        2.65079        0.46466
C          3.75236       -0.93038        1.04623
H          4.54283        1.61090        1.08203
C         -2.87157       -0.07425       -0.47269
O          4.41009       -1.13301       -0.19458
H          4.43157       -0.47922        1.77917
H          3.46743       -1.92596        1.39862
C          5.45966       -0.34842       -0.48060
O          5.85515        0.56382        0.22938
N          6.01914       -0.64518       -1.66960
H          6.92516       -0.23373       -1.88425
O          5.73856       -1.82662       -2.29715
H          5.11271       -1.61277       -3.00586
H         -3.84978        0.19265       -0.04990
H         -2.98654       -0.16367       -1.56315
N         -1.23626       -1.92362       -0.59631
C         -2.42521       -1.41712        0.10767
C         -3.41416       -2.57424       -0.15003
C         -2.96962       -3.10000       -1.51846
O         -1.70224       -2.47181       -1.78061
H         -2.24186       -1.36379        1.18396
C         -4.88733       -2.22620       -0.06642
H         -3.20877       -3.34049        0.61208
H         -2.84664       -4.19219       -1.53066
H         -3.64497       -2.79688       -2.33100
O         -5.61172       -3.42840       -0.21750
H         -5.09824       -1.74670        0.90744
H         -5.15488       -1.50605       -0.85962
H         -6.54642       -3.20453       -0.28880
O         -2.55326        2.21042       -0.87509
S         -1.89628        3.74576       -0.73155
O         -2.57134        4.33294        0.42813
O         -0.45415        3.50520       -0.51830
O         -2.24078        4.33449       -2.01924
H          3.47550        3.00791        1.10952
H         -1.58381        0.58505        3.88127
