59
ZTX_ketone_285_solv.log	Energy: -1435156.1476017
C          0.87441       -2.07663        0.38410
N          0.42102       -2.28483        1.73883
C         -0.21322       -1.35008        2.44448
C         -0.09032       -2.34316       -0.79680
H          1.66664       -2.80782        0.19800
N         -0.79131       -1.64458        3.59204
H         -0.85424       -2.60981        3.90238
H          0.58402       -3.19129        2.16861
N         -0.29188       -0.09896        1.94553
C         -0.46748        1.08995       -0.06389
C         -1.84088        1.10970        0.64244
C         -1.46273        0.76501        2.09456
O         -0.17346        1.52986       -1.13504
H         -2.27005        0.24313        2.62066
H         -1.20773        1.68347        2.64067
O          0.30404       -3.05175       -1.70045
C          1.43946       -0.66728        0.20426
C          0.55580        0.39699        0.87619
N          1.54483        1.33946        1.34303
C          2.76922        0.80283        1.36505
N          2.74072       -0.44499        0.84399
H          1.52086       -0.43730       -0.86996
N          3.83527        1.40271        1.83783
H          1.31192        2.22813        1.77927
C          3.90171       -1.23429        0.54719
H          4.76272        1.07993        1.54083
C         -2.80431        0.07258        0.03426
O          4.44363       -0.95588       -0.73127
H          4.65306       -1.08882        1.33215
H          3.61840       -2.29062        0.52855
C          5.47096       -0.08447       -0.80487
O          5.94132        0.51038        0.14692
N          5.86504        0.04840       -2.08645
H          5.59537       -0.64710       -2.77979
O          7.03992        0.70183       -2.32396
H          6.79768        1.57298       -2.67377
H         -3.72478        0.14283        0.63054
H         -3.04108        0.39400       -0.98819
N         -1.21141       -1.55071       -0.92257
C         -2.33026       -1.37884        0.01802
C         -3.35306       -2.36820       -0.58206
C         -3.03836       -2.30124       -2.08035
O         -1.78129       -1.61082       -2.18441
H         -2.05397       -1.73647        1.01340
C         -4.81443       -2.11690       -0.23136
H         -3.08916       -3.36664       -0.20336
H         -2.94811       -3.29715       -2.53680
H         -3.77234       -1.70538       -2.64266
O         -5.64503       -3.17224       -0.66531
H         -4.91951       -2.05650        0.86252
H         -5.15029       -1.15305       -0.65200
H         -5.71006       -3.12937       -1.62683
O         -2.45491        2.37746        0.69389
S         -2.67032        3.43290       -0.59589
O         -2.96959        2.60310       -1.76906
O         -3.79894        4.21223       -0.08745
O         -1.40850        4.17460       -0.67768
H          3.74471        2.34731        2.20087
H         -1.13154       -0.91218        4.20670
