59
ZTX_ketone_102_solv.log	Energy: -1435166.3811955
C         -1.31589        1.31238        1.26034
N         -0.62347        1.07875        2.50486
C          0.37179        0.20229        2.62731
C         -0.74328        2.35078        0.26469
H         -2.28733        1.74894        1.51048
N          1.11036        0.17251        3.71997
H          0.99995        0.88860        4.43170
H         -0.90042        1.61837        3.32047
N          0.64268       -0.62888        1.59875
C          0.62933       -0.73720       -0.73797
C          2.08432       -0.62608       -0.25122
C          2.00349       -1.03124        1.23435
O          0.24121       -0.70431       -1.86902
H          2.74155       -0.49167        1.83915
H          2.15053       -2.10670        1.38582
O         -1.48913        3.21882       -0.14080
C         -1.53726        0.00203        0.50901
C         -0.28440       -0.88197        0.50141
N         -0.85942       -2.20190        0.55871
C         -2.12491       -2.16652        0.97511
N         -2.54003       -0.88435        1.11891
H         -1.81842        0.21574       -0.53414
N         -2.84933       -3.23432        1.20805
H         -0.30077       -3.03635        0.37405
C         -3.92287       -0.52021        1.26032
H         -3.83243       -3.17061        1.44967
C          2.58795        0.81660       -0.43167
O         -4.65477       -0.69227        0.06116
H         -4.39809       -1.16514        2.00743
H         -3.98689        0.51636        1.60712
C         -4.70714        0.35902       -0.78774
O         -4.13887        1.41439       -0.60996
N         -5.52215        0.06066       -1.82561
H         -5.74130       -0.91280       -2.02890
O         -5.46428        0.88431       -2.91628
H         -6.26884        1.42359       -2.88749
H          3.62605        0.83354       -0.07636
H          2.60265        1.02634       -1.51063
N          0.47478        2.09798       -0.33232
C          1.79422        1.90433        0.29214
C          2.36604        3.33654        0.16357
C          1.73048        3.83635       -1.13672
O          0.70247        2.88168       -1.45359
H          1.68627        1.69153        1.35846
C          3.87239        3.50624        0.25711
H          1.93793        3.90086        1.00469
H          1.28435        4.83510       -1.02492
H          2.43278        3.83517       -1.97976
O          4.50631        3.02122       -0.90558
H          4.08666        4.58048        0.40007
H          4.23057        2.98088        1.16099
H          5.45843        3.10775       -0.78391
O          2.94352       -1.41841       -1.03780
S          2.77761       -3.08554       -1.02408
O          3.66119       -3.53846        0.05297
O          1.34323       -3.30656       -0.74657
O          3.20678       -3.43727       -2.37182
H         -2.43191       -4.15536        1.11306
H          1.76599       -0.58412        3.88705
