59
ZTX_ketone_136_solv.log	Energy: -1435165.7464195
C         -1.07253        1.57115        1.09176
N         -0.43583        1.31273        2.36070
C          0.41392        0.30527        2.55356
C         -0.33557        2.43858        0.04149
H         -1.96718        2.16714        1.29502
N          1.13507        0.23528        3.65625
H          1.12115        1.00061        4.32411
H         -0.64113        1.93305        3.13912
N          0.56049       -0.62063        1.58224
C          0.54499       -0.87897       -0.74157
C          1.99746       -0.96564       -0.23852
C          1.84389       -1.25350        1.26928
O          0.17499       -0.86174       -1.87887
H          2.65094       -0.79621        1.85363
H          1.81902       -2.32648        1.49179
O         -0.92779        3.38676       -0.43068
C         -1.48987        0.26491        0.42061
C         -0.38807       -0.80019        0.48911
N         -1.15937       -2.01072        0.61965
C         -2.41086       -1.75522        1.00009
N         -2.61861       -0.41890        1.06913
H         -1.72992        0.45145       -0.63799
N         -3.30053       -2.68164        1.26549
H         -0.73913       -2.93042        0.47708
C         -3.92074        0.16367        1.22787
H         -4.27137       -2.45688        1.45815
C          2.72370        0.36497       -0.49817
O         -4.70258        0.07990        0.04994
H         -4.47163       -0.38797        1.99729
H         -3.81492        1.20412        1.55269
C         -4.57161        1.07906       -0.84165
O         -3.82363        2.02775       -0.70357
N         -5.33362        0.88806       -1.94198
H         -5.46976        1.68683       -2.55825
O         -6.35797       -0.02016       -1.92733
H         -6.04854       -0.77974       -2.44347
H          3.74304        0.23542       -0.10979
H          2.79046        0.49791       -1.58820
N          0.82805        1.95173       -0.52207
C          2.10102        1.61001        0.13409
C          2.89938        2.90987       -0.10879
C          2.33331        3.41081       -1.44125
O          1.17196        2.60162       -1.69690
H          1.95742        1.49505        1.21141
C          4.41678        2.78969       -0.08998
H          2.60670        3.60888        0.69000
H          2.04137        4.46992       -1.40340
H          3.02079        3.24969       -2.28356
O          5.03062        4.04042       -0.31391
H          4.74250        2.34284        0.86665
H          4.75853        2.12865       -0.90022
H          4.79191        4.62449        0.41648
O          2.72657       -1.93089       -0.95974
S          2.30380       -3.54867       -0.84620
O          3.09621       -4.06312        0.27304
O          0.84991       -3.52650       -0.58198
O          2.68458       -4.04565       -2.16213
H         -3.03091       -3.66024        1.22632
H          1.65607       -0.60452        3.88784
