59
ZTX_ketone_116_solv.log	Energy: -1435167.4390071
C         -1.26765        1.38805        1.14854
N         -0.51702        1.25325        2.37385
C          0.49533        0.39905        2.51321
C         -0.75870        2.35286        0.04877
H         -2.23366        1.82953        1.40989
N          1.28268        0.45534        3.57010
H          1.18910        1.21547        4.23729
H         -0.77067        1.84089        3.16335
N          0.73275       -0.49888        1.53407
C          0.61602       -0.78158       -0.78442
C          2.09005       -0.61944       -0.37345
C          2.08203       -0.91153        1.14080
O          0.17810       -0.83586       -1.89619
H          2.83728       -0.31787        1.66914
H          2.25249       -1.97011        1.36753
O         -1.53879        3.17186       -0.39256
C         -1.50449        0.02438        0.50436
C         -0.23974       -0.84392        0.50294
N         -0.79193       -2.16267        0.68326
C         -2.04248       -2.11262        1.14187
N         -2.46648       -0.82844        1.21909
H         -1.83558        0.16058       -0.53706
N         -2.74710       -3.16994        1.46613
H         -0.23494       -3.00249        0.51851
C         -3.84039       -0.46547        1.42947
H         -3.72471       -3.10071        1.72814
C          2.56467        0.81198       -0.67345
O         -4.65095       -0.72354        0.29812
H         -4.25535       -1.06365        2.24797
H         -3.89370        0.59164        1.71088
C         -4.76969        0.26469       -0.61735
O         -4.20172        1.33311       -0.55258
N         -5.64794       -0.11212       -1.57500
H         -5.87053       -1.09891       -1.69161
O         -5.66885        0.62821       -2.72503
H         -6.47726        1.16086       -2.68569
H          3.61003        0.86085       -0.34187
H          2.54487        0.94643       -1.76507
N          0.43640        2.07033       -0.57920
C          1.78157        1.93930        0.00010
C          2.33842        3.35310       -0.28161
C          1.65349        3.72535       -1.59676
O          0.60182        2.75928       -1.77140
H          1.72464        1.81221        1.08340
C          3.85322        3.47770       -0.30445
H          1.95166        4.00121        0.52033
H          1.22422        4.73695       -1.57558
H          2.31995        3.62762       -2.46583
O          4.44158        3.01580        0.89213
H          4.27595        2.87589       -1.12267
H          4.12107        4.52962       -0.50770
H          4.13056        3.57528        1.61461
O          2.92515       -1.45699       -1.13813
S          2.78447       -3.12128       -0.99514
O          3.71658       -3.48475        0.07470
O          1.36565       -3.33674       -0.64238
O          3.16335       -3.56473       -2.33069
H         -2.32302       -4.09154        1.41555
H          1.95105       -0.28396        3.76306
