59
ZTX_ketone_279_solv.log	Energy: -1435156.3928889
C         -1.35875        1.71094        0.70163
N         -0.76800        1.99498        1.98862
C          0.13697        1.20555        2.56540
C         -0.63887        2.19224       -0.58104
H         -2.30497        2.25789        0.65458
N          0.80749        1.61071        3.62620
H          0.73145        2.57158        3.94666
H         -1.04039        2.85019        2.46537
N          0.38613       -0.00694        2.02588
C          0.51239       -1.11383       -0.03555
C          1.94622       -0.86803        0.47936
C          1.71323       -0.62432        1.98225
O          0.16375       -1.58364       -1.07731
H          2.46989        0.03900        2.41701
H          1.71797       -1.58192        2.52024
O         -1.27534        2.84170       -1.38472
C         -1.64323        0.21764        0.54809
C         -0.48611       -0.65099        1.05992
N         -1.19739       -1.77738        1.61845
C         -2.48403       -1.48461        1.83747
N         -2.78184       -0.26189        1.34408
H         -1.81276       -0.01686       -0.51378
N         -3.32138       -2.29186        2.44149
H         -0.72773       -2.57663        2.03820
C         -4.12970        0.19163        1.12573
H         -4.30448       -2.06443        2.54836
C          2.58502        0.34989       -0.21570
O         -4.76293       -0.48113        0.05457
H         -4.73630       -0.00928        2.01483
H         -4.11660        1.27294        0.95205
C         -4.58869        0.03109       -1.18566
O         -3.93247        1.01932       -1.43273
N         -5.21634       -0.75408       -2.09050
H         -5.94684       -1.39277       -1.78177
O         -5.38496       -0.24060       -3.34677
H         -4.74050       -0.69458       -3.91015
H          3.57107        0.47139        0.25242
H          2.73845        0.09121       -1.27155
N          0.58402        1.63363       -0.89167
C          1.83154        1.67321       -0.11288
C          2.54324        2.86256       -0.79705
C          2.05492        2.75874       -2.24242
O          0.95393        1.83342       -2.21306
H          1.63140        1.95508        0.92297
C          4.05571        2.90468       -0.65131
H          2.12732        3.77521       -0.34224
H          1.71303        3.72458       -2.64047
H          2.80940        2.33005       -2.91767
O          4.46218        2.88861        0.69994
H          4.51172        2.02737       -1.13377
H          4.43847        3.79668       -1.17831
H          4.10740        3.67738        1.12840
O          2.80336       -1.98435        0.39888
S          3.03240       -2.96762       -0.94422
O          1.93265       -3.93502       -0.88345
O          3.00680       -2.08353       -2.11579
O          4.34599       -3.52228       -0.61811
H         -2.98617       -3.17466        2.81689
H          1.37910        0.96396        4.16042
