59
ZTX_ketone_98_solv.log	Energy: -1435167.4823240
C         -1.43536        1.25483       -0.52902
N         -1.52597        1.20128        0.90985
C         -0.77908        0.38149        1.64705
C         -0.39847        2.18614       -1.19837
H         -2.38699        1.66701       -0.87601
N         -0.75834        0.48307        2.96172
H         -1.22582        1.25856        3.42216
H         -2.28704        1.70964        1.35439
N          0.00158       -0.52428        1.02199
C          1.23085       -0.91538       -0.92443
C          2.20399       -0.67476        0.24593
C          1.33324       -0.90011        1.49836
O          1.51191       -1.03661       -2.08059
H          1.64044       -0.25078        2.32686
H          1.35254       -1.93941        1.84596
O         -0.79516        2.93732       -2.06701
C         -1.26132       -0.14368       -1.11652
C         -0.20627       -0.95851       -0.35571
N         -0.75328       -2.29062       -0.42998
C         -2.06061       -2.25815       -0.69844
N         -2.44761       -1.00151       -1.00494
H         -0.96398       -0.06699       -2.17456
N         -2.84697       -3.30805       -0.67442
H         -0.21408       -3.10465       -0.13246
C         -3.73500       -0.68343       -1.57426
H         -3.83895       -3.23527       -0.87512
C          2.75488        0.75981        0.19046
O         -4.75663       -0.72801       -0.60012
H         -3.67683        0.30117       -2.05189
H         -4.01903       -1.42837       -2.32777
C         -4.96157        0.37192        0.15722
O         -4.44332        1.45107       -0.03471
N         -5.80072        0.06871        1.17260
H         -6.37488       -0.77087        1.11963
O         -6.35844        1.11494        1.85311
H         -5.89681        1.15640        2.70406
H          3.43202        0.85574        1.05023
H          3.35595        0.85075       -0.72633
N          0.94490        1.93980       -1.00866
C          1.71961        1.88422        0.24047
C          2.32744        3.30218        0.25161
C          2.49924        3.60536       -1.23979
O          1.75429        2.58593       -1.92988
H          1.05167        1.79234        1.10050
C          3.58870        3.48483        1.07261
H          1.55893        3.97090        0.66705
H          2.10868        4.59472       -1.51673
H          3.54257        3.51533       -1.57418
O          3.91371        4.85831        1.04108
H          3.40953        3.13515        2.10631
H          4.40962        2.87830        0.65122
H          4.77663        4.96916        1.45551
O          3.33328       -1.50964        0.14344
S          3.15376       -3.17036        0.28732
O          3.32584       -3.43985        1.71636
O          1.78520       -3.43157       -0.20516
O          4.22361       -3.65770       -0.57404
H         -2.46809       -4.21481       -0.41803
H         -0.31727       -0.23120        3.53211
