59
ZTX_ketone_28_solv.log	Energy: -1435167.8805102
C          0.59763       -1.99004        0.83272
N          0.07827       -1.70801        2.14893
C         -0.53904       -0.56735        2.45238
C         -0.33199       -2.60409       -0.24267
H          1.35508       -2.77099        0.94890
N         -1.17857       -0.42975        3.59753
H         -1.29871       -1.22568        4.21715
H          0.18675       -2.41351        2.87220
N         -0.53877        0.43334        1.54811
C         -0.56637        0.85555       -0.74935
C         -1.94926        1.19139       -0.15919
C         -1.67378        1.33675        1.35073
O         -0.25883        0.84372       -1.90514
H         -2.53258        1.01489        1.95121
H         -1.41504        2.36340        1.63481
O          0.06637       -3.58747       -0.83388
C          1.24831       -0.74796        0.22651
C          0.38373        0.50547        0.42033
N          1.38422        1.52726        0.59525
C          2.57438        1.00457        0.89562
N          2.51086       -0.34919        0.86076
H          1.41312       -0.90676       -0.85161
N          3.64179        1.70453        1.19556
H          1.15469        2.51922        0.51788
C          3.63671       -1.22664        0.98176
H          4.56891        1.26748        1.13256
C         -2.94232        0.05418       -0.45440
O          4.32906       -1.40420       -0.24366
H          4.31315       -0.85239        1.75915
H          3.28117       -2.21922        1.27399
C          5.45022       -0.68404       -0.44255
O          5.85627        0.18486        0.30798
N          6.07230       -1.09623       -1.56435
H          5.58227       -1.67766       -2.24151
O          7.05826       -0.29801       -2.06967
H          7.89721       -0.71104       -1.81437
H         -3.89386        0.35522        0.00464
H         -3.08798        0.02160       -1.54421
N         -1.40901       -1.87003       -0.69273
C         -2.56081       -1.33790        0.05245
C         -3.61232       -2.42644       -0.25146
C         -3.21768       -2.89304       -1.65574
O         -1.91550       -2.33108       -1.89770
H         -2.36430       -1.35118        1.12743
C         -5.06452       -2.01180       -0.11953
H         -3.43299       -3.24514        0.46123
H         -3.16471       -3.98784       -1.73710
H         -3.88222       -2.49790       -2.43722
O         -5.84960       -3.16561       -0.33261
H         -5.23637       -1.58554        0.88619
H         -5.30722       -1.23028       -0.86096
H         -6.77325       -2.89373       -0.37333
O         -2.49969        2.33112       -0.77700
S         -1.75163        3.81924       -0.58884
O         -0.32182        3.48706       -0.41862
O         -2.08712        4.47833       -1.84439
O         -2.36675        4.39739        0.60822
H          3.57510        2.71799        1.20037
H         -1.52232        0.47723        3.89647
