59
ZTX_ketone_240_solv.log	Energy: -1435165.7733334
C         -1.20365        1.53747        1.09263
N         -0.57088        1.31580        2.37082
C          0.33326        0.35957        2.57493
C         -0.51322        2.46479        0.06165
H         -2.14000        2.06867        1.28483
N          1.02948        0.31784        3.69469
H          0.95389        1.07064        4.37234
H         -0.83408        1.91168        3.15102
N          0.56334       -0.54266        1.59763
C          0.60745       -0.78045       -0.72817
C          2.05240       -0.76867       -0.19926
C          1.89468       -1.07790        1.30295
O          0.25672       -0.77718       -1.87186
H          2.65748       -0.56781        1.90279
H          1.94522       -2.15112        1.51954
O         -1.16814        3.36963       -0.41475
C         -1.52172        0.20999        0.41014
C         -0.35032       -0.77679        0.48551
N         -1.03858       -2.03837        0.59226
C         -2.30581       -1.87272        0.97066
N         -2.60744       -0.55414        1.04455
H         -1.76379        0.38578       -0.64964
N         -3.12737       -2.86158        1.22953
H         -0.55256       -2.92628        0.45667
C         -3.94859       -0.06213        1.19190
H         -4.10576       -2.70458        1.44689
C          2.68604        0.61193       -0.44005
O         -4.70995       -0.18901        0.00469
H         -4.46969       -0.65450        1.95180
H         -3.91790        0.98083        1.52497
C         -4.65504        0.83156       -0.87039
O         -3.98890        1.83630       -0.71232
N         -5.47011        0.63926       -1.93270
H         -5.31846        1.23084       -2.74714
O         -5.96881       -0.60686       -2.20389
H         -6.89849       -0.58742       -1.93153
H          3.71200        0.55657       -0.05482
H          2.74623        0.76186       -1.52738
N          0.69728        2.07980       -0.47652
C          1.97248        1.80018        0.20453
C          2.67618        3.16806        0.03345
C          2.12595        3.66416       -1.30715
O          1.03174        2.78531       -1.62240
H          1.80971        1.64799        1.27436
C          4.18889        3.20500        0.16650
H          2.27864        3.80607        0.83596
H          1.76224        4.70025       -1.25019
H          2.85185        3.56907       -2.12441
O          4.80618        2.61684       -0.95697
H          4.49661        4.26048        0.27348
H          4.47356        2.68729        1.10050
H          5.75946        2.63434       -0.81667
O          2.86026       -1.67572       -0.91283
S          2.54852       -3.31892       -0.81481
O          2.98408       -3.78105       -2.12655
O          3.35533       -3.78548        0.31525
O          1.09232       -3.39816       -0.57533
H         -2.78813       -3.81826        1.19173
H          1.59525       -0.49238        3.92677
