59
ZTX_ketone_196_solv.log	Energy: -1435163.4942127
C         -1.61545        0.89028        0.91292
N         -1.01970        0.80612        2.22149
C          0.04726        0.05500        2.48972
C         -1.11622        1.92415       -0.12047
H         -2.65696        1.19798        1.05737
N          0.65064        0.14279        3.65875
H          0.36525        0.85022        4.32975
H         -1.45279        1.32418        2.98167
N          0.53487       -0.76329        1.53089
C          0.77611       -0.81733       -0.79320
C          2.13751       -0.49205       -0.15633
C          1.97223       -0.94660        1.30754
O          0.49174       -0.76671       -1.95415
H          2.55550       -0.32231        1.99408
H          2.26216       -1.99278        1.45625
O         -1.97866        2.41825       -0.84396
C         -1.58055       -0.46419        0.21283
C         -0.22078       -1.14501        0.34119
N         -0.59995       -2.53417        0.33800
C         -1.89729       -2.68730        0.62027
N         -2.49110       -1.47804        0.75216
H         -1.80325       -0.32438       -0.85693
N         -2.48147       -3.85221        0.76055
H          0.08675       -3.27797        0.20831
C         -3.90962       -1.22989        0.73296
H         -3.47690       -3.93313        0.93951
C          2.43156        1.01491       -0.26892
O         -4.22594       -0.70525       -0.54055
H         -4.45904       -2.16050        0.91651
H         -4.17720       -0.50739        1.51465
C         -5.02429        0.37971       -0.58426
O         -5.84890        0.64935        0.26618
N         -4.83746        1.10113       -1.71197
H         -5.32131        1.99436       -1.77831
O         -3.69151        0.97864       -2.45148
H         -3.00444        1.47634       -1.95452
H          3.41688        1.15166        0.19648
H          2.53141        1.24727       -1.33955
N          0.19632        2.10693       -0.37676
C          1.45139        2.00058        0.37902
C          1.92003        3.46791        0.29050
C          1.42045        3.89411       -1.09158
O          0.45250        2.90102       -1.47864
H          1.25071        1.77153        1.42801
C          3.39640        3.72189        0.52264
H          1.36169        4.02170        1.05963
H          0.94000        4.88183       -1.08266
H          2.21472        3.87603       -1.85140
O          3.58366        5.12111        0.52174
H          3.69959        3.27283        1.48651
H          3.99631        3.24647       -0.27289
H          4.53153        5.29424        0.54658
O          3.18707       -1.11595       -0.85798
S          3.27300       -2.78986       -0.89174
O          4.09318       -3.14346        0.26890
O          1.86441       -3.22355       -0.77755
O          3.89047       -3.02862       -2.18967
H         -1.93370       -4.70333        0.67463
H          1.36335       -0.52732        3.93051
