59
ZTX_ketone_78_solv.log	Energy: -1435165.8785793
C         -1.05929        1.59646        1.07995
N         -0.42353        1.33985        2.34959
C          0.41665        0.32539        2.54794
C         -0.31493        2.44823        0.02210
H         -1.94667        2.20428        1.28021
N          1.14125        0.25833        3.64863
H          1.13907        1.03088        4.30830
H         -0.61606        1.97141        3.12222
N          0.54968       -0.61089        1.58458
C          0.52831       -0.88270       -0.73796
C          1.98035       -0.98261       -0.23611
C          1.82489       -1.26106        1.27337
O          0.15721       -0.86733       -1.87492
H          2.63838       -0.81127        1.85453
H          1.78650       -2.33253        1.50099
O         -0.89957        3.39712       -0.45813
C         -1.49215        0.29000        0.41947
C         -0.40220       -0.78671        0.49342
N         -1.18693       -1.98774        0.63236
C         -2.43426       -1.71553        1.01556
N         -2.62597       -0.37657        1.07657
H         -1.73350        0.47128       -0.63973
N         -3.33345       -2.62992        1.29081
H         -0.77795       -2.91295        0.49273
C         -3.91836        0.22396        1.24442
H         -4.30276       -2.39397        1.47771
C          2.72101        0.33846       -0.50418
O         -4.71649        0.13836        0.07735
H         -4.46703       -0.31190        2.02627
H         -3.79530        1.26630        1.55679
C         -4.57454        1.11964       -0.83193
O         -3.80830        2.05651       -0.71597
N         -5.42179        0.97761       -1.87667
H         -5.22516        1.52747       -2.71053
O         -6.04257       -0.22162       -2.10360
H         -6.96488       -0.10029       -1.83287
H          3.73943        0.20042       -0.11623
H          2.78753        0.46445       -1.59501
N          0.84448        1.94753       -0.53719
C          2.11207        1.59341        0.12172
C          2.92365        2.88319       -0.12369
C          2.37085        3.38088       -1.46314
O          1.19702        2.58801       -1.71469
H          1.96642        1.48550        1.19932
C          4.43265        2.74151       -0.08624
H          2.63635        3.59137        0.66759
H          2.09593        4.44480       -1.43606
H          3.05868        3.19997       -2.30120
O          4.97774        4.03781       -0.21076
H          4.73426        2.26631        0.86549
H          4.77490        2.09000       -0.90985
H          5.93528        3.95307       -0.27914
O          2.69779       -1.95968       -0.95305
S          2.25717       -3.57200       -0.83039
O          3.04490       -4.08910        0.29095
O          0.80392       -3.53240       -0.56508
O          2.63145       -4.08022       -2.14390
H         -3.07485       -3.61165        1.25511
H          1.65758       -0.58296        3.88488
