59
ZTX_ketone_149_solv.log	Energy: -1435167.2552911
C          0.91771       -1.81718        0.95550
N          0.36101       -1.55118        2.25965
C         -0.41911       -0.50179        2.51327
C          0.08854       -2.61548       -0.08223
H          1.77748       -2.47698        1.10466
N         -1.09021       -0.42048        3.64618
H         -1.09619       -1.20395        4.29288
H          0.55019       -2.21029        3.00993
N         -0.54926        0.45775        1.57332
C         -0.62592        0.76726       -0.74272
C         -2.04511        0.92378       -0.17053
C         -1.80585        1.17108        1.33292
O         -0.31036        0.74652       -1.89639
H         -2.61123        0.74927        1.94569
H         -1.70672        2.23562        1.57383
O          0.62902       -3.56123       -0.62141
C          1.38455       -0.52531        0.28991
C          0.35743        0.60585        0.43989
N          1.20820        1.76292        0.55935
C          2.46824        1.42334        0.83586
N          2.58789        0.07422        0.87924
H          1.55818       -0.70761       -0.78320
N          3.44190        2.27567        1.05001
H          0.84968        2.70748        0.41231
C          3.82042       -0.63617        1.04841
H          4.41513        1.96186        0.95513
C         -2.85728       -0.35836       -0.42327
O          4.49298       -0.86772       -0.17874
H          4.46235       -0.09332        1.75179
H          3.60818       -1.62546        1.46406
C          5.46733       -0.01417       -0.52745
O          5.78529        0.97290        0.11867
N          6.04308       -0.33675       -1.70132
H          6.90511        0.13997       -1.95781
O          5.85485       -1.57096       -2.25696
H          5.21115       -1.44871       -2.97154
H         -3.85657       -0.18169       -0.00572
H         -2.96655       -0.47003       -1.51147
N         -1.08838       -2.08305       -0.55695
C         -2.29057       -1.64752        0.17150
C         -3.17825       -2.90282       -0.00352
C         -2.75131       -3.42614       -1.37737
O         -1.54777       -2.70965       -1.70530
H         -2.07513       -1.54631        1.23794
C         -4.67603       -2.74518        0.19452
H         -2.83774       -3.61183        0.76499
H         -2.54518       -4.50609       -1.36631
H         -3.48080       -3.19462       -2.16352
O         -5.25701       -2.04758       -0.88495
H         -5.11477       -3.75440        0.28859
H         -4.85179       -2.22425        1.15338
H         -6.20272       -1.97260       -0.71532
O         -2.74981        1.94415       -0.83869
S         -2.22795        3.53109       -0.71429
O         -2.63946        4.07931       -2.00030
O         -2.93545        4.06562        0.45147
O         -0.76705        3.41940       -0.52047
H          3.23995        3.27001        1.00070
H         -1.55506        0.43989        3.91756
