59
ZTX_ketone_38_solv.log	Energy: -1435168.3913845
C          1.09873       -1.66398       -0.29636
N          1.14956       -1.52713        1.13875
C          0.51616       -0.55624        1.79354
C         -0.06556       -2.45018       -0.94584
H          1.97452       -2.25113       -0.59072
N          0.40620       -0.58613        3.10754
H          0.71468       -1.39995        3.63117
H          1.68509       -2.20770        1.67086
N         -0.05704        0.44018        1.08640
C         -1.10661        0.95625       -0.93426
C         -2.15991        0.94785        0.18920
C         -1.32178        1.06641        1.47745
O         -1.30798        1.07437       -2.10755
H         -1.77982        0.51791        2.30883
H         -1.17150        2.10673        1.78811
O          0.21378       -3.35148       -1.70913
C          1.18068       -0.29591       -0.97412
C          0.28700        0.75196       -0.29662
N          1.09782        1.94105       -0.40556
C          2.38114        1.63564       -0.62121
N          2.50758        0.31701       -0.89619
H          0.88935       -0.38786       -2.03322
N          3.37488        2.48921       -0.59434
H          0.74206        2.85181       -0.11597
C          3.64321       -0.28865       -1.53984
H          4.33385        2.12411       -0.56853
C         -2.96600       -0.36196        0.14968
O          4.44978       -1.02478       -0.64065
H          3.27941       -1.01722       -2.27308
H          4.23904        0.47249       -2.05860
C          5.41847       -0.35493        0.01196
O          5.62415        0.84000       -0.09504
N          6.14691       -1.20914        0.75830
H          5.79078       -2.14059        0.96387
O          6.98648       -0.67474        1.69317
H          7.88016       -0.74515        1.32467
H         -3.69855       -0.28852        0.96488
H         -3.51918       -0.38225       -0.80104
N         -1.33905       -1.91527       -0.87969
C         -2.16753       -1.65626        0.30967
C         -3.03307       -2.93608        0.33196
C         -3.15929       -3.27835       -1.15596
O         -2.19711       -2.44938       -1.82872
H         -1.55288       -1.65060        1.21387
C         -4.36112       -2.83963        1.07314
H         -2.43391       -3.71299        0.82914
H         -2.94311       -4.33585       -1.36454
H         -4.14444       -3.01724       -1.56997
O         -4.98535       -4.09987        1.19215
H         -4.18014       -2.47401        2.09539
H         -5.02870       -2.11614        0.57364
H         -5.33576       -4.34663        0.32787
O         -3.10935        1.97019       -0.00165
S         -2.62560        3.57283        0.08489
O         -2.81115        3.94240        1.49016
O         -1.21043        3.54605       -0.33934
O         -3.54214        4.20885       -0.85345
H          3.19633        3.45467       -0.33494
H          0.07185        0.22379        3.61971
