59
ZTX_ketone_286_solv.log	Energy: -1435168.2357119
C         -1.54890        1.10839       -0.57998
N         -1.60075        1.10179        0.86202
C         -0.76542        0.38429        1.61085
C         -0.63376        2.11537       -1.31403
H         -2.54717        1.40454       -0.91499
N         -0.72638        0.53985        2.91970
H         -1.25538        1.28581        3.36185
H         -2.38772        1.56720        1.30875
N          0.08323       -0.46954        1.00173
C          1.30481       -0.80002       -0.96142
C          2.27186       -0.41538        0.17356
C          1.45753       -0.68799        1.45472
O          1.56882       -0.92640       -2.12129
H          1.71288        0.01595        2.25548
H          1.59325       -1.70820        1.83163
O         -1.12726        2.77095       -2.21159
C         -1.24957       -0.28686       -1.12210
C         -0.10780       -0.96929       -0.35626
N         -0.52468       -2.34958       -0.37555
C         -1.83372       -2.45221       -0.61890
N         -2.34478       -1.25147       -0.96338
H         -0.97620       -0.21826       -2.18693
N         -2.51464       -3.57051       -0.54046
H          0.09276       -3.09827       -0.06057
C         -3.67787       -1.07123       -1.48175
H         -3.51042       -3.60323       -0.73446
C          2.66542        1.06668        0.05637
O         -4.64433       -1.10792       -0.45104
H         -3.71965       -0.12716       -2.03787
H         -3.94005       -1.89307       -2.15945
C         -4.96753        0.04698        0.17019
O         -4.57454        1.14593       -0.16003
N         -5.83236       -0.21065        1.17613
H         -5.91180       -1.15367        1.55128
O         -6.07536        0.79819        2.06543
H         -6.95028        1.14977        1.84101
H          3.34269        1.26552        0.89739
H          3.23295        1.18850       -0.87814
N          0.72717        2.04069       -1.13354
C          1.52114        2.07957        0.10163
C          1.98131        3.55636        0.08542
C          2.08433        3.86060       -1.41060
O          1.45044        2.75436       -2.07546
H          0.88032        1.93847        0.97438
C          3.24249        3.86645        0.86414
H          1.15660        4.14194        0.51786
H          1.57427        4.79556       -1.68276
H          3.12244        3.89031       -1.77055
O          3.03006        3.50016        2.21074
H          4.10152        3.32521        0.42885
H          3.45928        4.94576        0.76907
H          3.85616        3.62852        2.69068
O          3.48197       -1.12809        0.06997
S          3.48144       -2.79251        0.26530
O          2.13730       -3.20930       -0.18529
O          4.57809       -3.19242       -0.60757
O          3.71161       -2.99922        1.69676
H         -2.04686       -4.42566       -0.25533
H         -0.21068       -0.10954        3.50538
