59
ZTX_ketone_130_solv.log	Energy: -1435167.2203451
C          0.90370       -1.83368        0.96206
N          0.34736       -1.56314        2.26547
C         -0.42368       -0.50682        2.51786
C          0.06859       -2.62413       -0.07675
H          1.75752       -2.50086        1.11244
N         -1.09609       -0.41947        3.64955
H         -1.11126       -1.20308        4.29595
H          0.52983       -2.22401        3.01581
N         -0.54349        0.45371        1.57767
C         -0.61048        0.76838       -0.73781
C         -2.02987        0.93691       -0.16950
C         -1.79306        1.17842        1.33520
O         -0.29182        0.74727       -1.89059
H         -2.60389        0.76197        1.94449
H         -1.68578        2.24151        1.57902
O          0.59948       -3.57699       -0.61280
C          1.38421       -0.54593        0.29822
C          0.36788        0.59512        0.44722
N          1.22981        1.74331        0.57199
C          2.48508        1.39056        0.85308
N          2.59182        0.04019        0.89206
H          1.55933       -0.72878       -0.77460
N          3.46546        2.23303        1.07548
H          0.88086        2.69205        0.42922
C          3.81899       -0.68144        1.05169
H          4.43618        1.91142        0.98548
C         -2.85323       -0.33696       -0.42784
O          4.48642       -0.90581       -0.17977
H          4.46724       -0.15054        1.75849
H          3.60017       -1.67319        1.45802
C          5.46821       -0.05780       -0.52084
O          5.80160        0.91434        0.13964
N          6.09083       -0.41596       -1.66055
H          6.70008        0.26812       -2.10450
O          5.53811       -1.34915       -2.49215
H          6.04703       -2.16343       -2.35967
H         -3.85280       -0.15102       -0.01498
H         -2.95824       -0.44645       -1.51667
N         -1.10079       -2.07855       -0.55597
C         -2.30158       -1.63192        0.16839
C         -3.20117       -2.87830       -0.01028
C         -2.77161       -3.40858       -1.38080
O         -1.56252       -2.70042       -1.70588
H         -2.08971       -1.53307        1.23578
C         -4.69833       -2.70400        0.17815
H         -2.87318       -3.58964        0.76145
H         -2.57212       -4.48974       -1.36533
H         -3.49606       -3.17514       -2.17098
O         -5.26483       -2.00145       -0.90577
H         -5.14874       -3.70821        0.27067
H         -4.87447       -2.17997        1.13526
H         -6.21094       -1.91728       -0.74289
O         -2.72284        1.96550       -0.83730
S         -2.18667        3.54716       -0.70652
O         -2.59015        4.10307       -1.99176
O         -2.89214        4.08461        0.45918
O         -0.72739        3.42152       -0.50946
H          3.27298        3.22934        1.02750
H         -1.55486        0.44467        3.91933
