59
ZTX_ketone_138_solv.log	Energy: -1435167.2947552
C          0.74902       -1.86482        0.96103
N          0.19372       -1.55744        2.25653
C         -0.49953       -0.44685        2.50070
C         -0.13124       -2.58001       -0.09390
H          1.54804       -2.59472        1.12034
N         -1.17588       -0.30793        3.62440
H         -1.26311       -1.08716        4.27022
H          0.31911       -2.23129        3.00667
N         -0.53534        0.51822        1.55913
C         -0.54112        0.85049       -0.75371
C         -1.95183        1.12882       -0.20331
C         -1.71657        1.34517        1.30543
O         -0.20851        0.81259       -1.90198
H         -2.56825        0.99582        1.90113
H         -1.52487        2.39506        1.55550
O          0.32232       -3.57280       -0.62620
C          1.33513       -0.61525        0.30674
C          0.40302        0.59701        0.44536
N          1.34448        1.67698        0.59438
C          2.56415        1.23206        0.89828
N          2.57472       -0.12371        0.92016
H          1.51094       -0.80812       -0.76408
N          3.59536        2.00083        1.15490
H          1.06765        2.65102        0.46420
C          3.75244       -0.92973        1.04677
H          4.54271        1.61163        1.08135
C         -2.87149       -0.07447       -0.47285
O          4.41003       -1.13315       -0.19397
H          4.43168       -0.47799        1.77934
H          3.46766       -1.92508        1.39991
C          5.45922       -0.34835       -0.48083
O          5.85471        0.56437        0.22853
N          6.01834       -0.64553       -1.66989
H          6.92414       -0.23393       -1.88513
O          5.73768       -1.82724       -2.29690
H          5.11145       -1.61374       -3.00537
H         -3.84977        0.19227       -0.05010
H         -2.98641       -0.16392       -1.56331
N         -1.23582       -1.92355       -0.59628
C         -2.42492       -1.41725        0.10758
C         -3.41359       -2.57457       -0.15019
C         -2.96916       -3.09981       -1.51882
O         -1.70157       -2.47189       -1.78062
H         -2.24166       -1.36384        1.18389
C         -4.88683       -2.22696       -0.06615
H         -3.20777       -3.34095        0.61169
H         -2.84652       -4.19203       -1.53156
H         -3.64442       -2.79608       -2.33122
O         -5.61096       -3.42932       -0.21723
H         -5.09762       -1.74767        0.90785
H         -5.15478       -1.50676       -0.85916
H         -6.54573       -3.20566       -0.28820
O         -2.55340        2.21024       -0.87520
S         -1.89658        3.74564       -0.73159
O         -2.57170        4.33271        0.42811
O         -0.45442        3.50524       -0.51839
O         -2.24117        4.33438       -2.01926
H          3.47525        3.00854        1.10902
H         -1.58380        0.58522        3.88126
