59
ZTX_ketone_220_solv.log	Energy: -1435155.5110121
C         -1.38924        1.50513        0.93624
N         -0.87650        1.54912        2.28542
C         -0.01342        0.65641        2.76752
C         -0.58615        2.18974       -0.19642
H         -2.32477        2.07160        0.92795
N          0.58843        0.85662        3.92413
H          0.48354        1.74334        4.40834
H         -1.18047        2.30726        2.89037
N          0.26577       -0.44203        2.03397
C          0.51350       -1.16688       -0.18118
C          1.91420       -1.03888        0.45662
C          1.58825       -1.06305        1.96196
O          0.22877       -1.44613       -1.30734
H          2.32168       -0.50154        2.55165
H          1.55422       -2.10142        2.31877
O         -1.16351        2.98621       -0.90634
C         -1.67741        0.06557        0.51264
C         -0.54841       -0.89311        0.91803
N         -1.28953       -2.09468        1.22469
C         -2.58010       -1.82474        1.45347
N         -2.85042       -0.53247        1.16791
H         -1.80216        0.01698       -0.58031
N         -3.43952       -2.71106        1.89289
H         -0.83992       -2.95459        1.53134
C         -4.18591       -0.01527        1.03361
H         -4.42508       -2.49598        1.99920
C          2.60513        0.27243        0.03498
O         -4.79608       -0.39107       -0.18559
H         -4.81674       -0.42248        1.83115
H         -4.16287        1.07465        1.13754
C         -4.61040        0.42802       -1.24609
O         -3.90597        1.41362       -1.23575
N         -5.36157       -0.00098       -2.28597
H         -5.71543       -0.95575       -2.29102
O         -5.06834        0.51591       -3.51800
H         -5.76879        1.15602       -3.71365
H          3.56062        0.28923        0.57803
H          2.82799        0.20274       -1.03770
N          0.64869        1.66806       -0.53002
C          1.84759        1.56750        0.31859
C          2.59738        2.84604       -0.10948
C          2.19798        2.99224       -1.58015
O          1.09649        2.08671       -1.77372
H          1.57883        1.67026        1.37271
C          4.09345        2.85552        0.13307
H          2.15994        3.67632        0.46500
H          1.88011        4.01379       -1.83183
H          2.99379        2.67454       -2.26895
O          4.56794        4.13763       -0.22015
H          4.29543        2.62893        1.19637
H          4.58264        2.07422       -0.47488
H          5.53050        4.12154       -0.17588
O          2.76646       -2.13825        0.22843
S          3.07946       -2.86230       -1.25591
O          1.98263       -3.81794       -1.43611
O          3.11804       -1.77924       -2.24554
O          4.37422       -3.47523       -0.96016
H         -3.12692       -3.65492        2.10189
H          1.12114        0.11599        4.36911
