59
ZTX_ketone_91_solv.log	Energy: -1435165.7682066
C         -1.25101        1.39954        1.13906
N         -0.49837        1.26690        2.36329
C          0.50826        0.40666        2.50553
C         -0.73913        2.35203        0.02981
H         -2.21289        1.84999        1.40008
N          1.29943        0.46459        3.55939
H          1.21230        1.22925        4.22233
H         -0.74519        1.86197        3.14943
N          0.73694       -0.49915        1.53137
C          0.61010       -0.79673       -0.78456
C          2.08702       -0.64100       -0.38015
C          2.08256       -0.92151        1.13612
O          0.16828       -0.85559       -1.89448
H          2.84302       -0.32807        1.65769
H          2.24869       -1.97936        1.36964
O         -1.51653        3.17009       -0.41790
C         -1.49987        0.03355        0.50418
C         -0.24163       -0.84469        0.50616
N         -0.80322       -2.15786        0.69762
C         -2.05411       -2.09551        1.15411
N         -2.46787       -0.80777        1.22440
H         -1.83022        0.16628       -0.53793
N         -2.76833       -3.14521        1.48228
H         -0.25446       -3.00317        0.53352
C         -3.83749       -0.43203        1.44089
H         -3.74592       -3.06573        1.74159
C          2.56824        0.78524       -0.69439
O         -4.65963       -0.69220        0.31855
H         -4.25235       -1.02075        2.26616
H         -3.88071        0.62741        1.71516
C         -4.74998        0.27707       -0.62062
O         -4.19273        1.35116       -0.55546
N         -5.51466       -0.16102       -1.64673
H         -6.14223       -0.95053       -1.50679
O         -5.94622        0.77389       -2.54647
H         -5.40776        0.64724       -3.34199
H          3.62140        0.82338       -0.38402
H          2.53590        0.91186       -1.78663
N          0.45232        2.05580       -0.59822
C          1.79689        1.92128       -0.01981
C          2.35251        3.33274       -0.31207
C          1.71869        3.65041       -1.66344
O          0.61748        2.73377       -1.79865
H          1.74298        1.80066        1.06480
C          3.86324        3.50579       -0.27436
H          1.91998        3.99535        0.45282
H          1.34501        4.68222       -1.72075
H          2.40073        3.45967       -2.50537
O          4.39789        3.30836        1.01648
H          4.34783        2.85170       -1.02059
H          4.09713        4.54190       -0.56156
H          4.39307        2.36439        1.21444
O          2.91399       -1.48906       -1.14167
S          2.76183       -3.15187       -0.98764
O          3.69583       -3.51485        0.08061
O          1.34295       -3.35391       -0.62744
O          3.13181       -3.60631       -2.32188
H         -2.35191       -4.07061        1.43787
H          1.96184       -0.27899        3.75625
