59
ZTX_ketone_295_solv.log	Energy: -1435167.9289225
C         -1.54635        1.10212       -0.59599
N         -1.60312        1.10222        0.84589
C         -0.76985        0.38874        1.60097
C         -0.63043        2.10636       -1.33290
H         -2.54386        1.39512       -0.93591
N         -0.73610        0.55004        2.90935
H         -1.27107        1.29471        3.34641
H         -2.39410        1.56586        1.28740
N          0.08270       -0.46611        0.99885
C          1.31242       -0.79933       -0.95888
C          2.27408       -0.40816        0.17856
C          1.45590       -0.67972        1.45755
O          1.58099       -0.92818       -2.11744
H          1.70653        0.02709        2.25727
H          1.59290       -1.69857        1.83769
O         -1.12159        2.75199       -2.23916
C         -1.24306       -0.29518       -1.13019
C         -0.10185       -0.97127       -0.35818
N         -0.51476       -2.35276       -0.37389
C         -1.82319       -2.45964       -0.61930
N         -2.33651       -1.26145       -0.96906
H         -0.96723       -0.23152       -2.19470
N         -2.50142       -3.57936       -0.53802
H          0.10393       -3.09876       -0.05514
C         -3.67090       -1.08493       -1.48520
H         -3.49657       -3.61581       -0.73457
C          2.66326        1.07504        0.05974
O         -4.63520       -1.12193       -0.45243
H         -3.71578       -0.14170       -2.04252
H         -3.93274       -1.90828       -2.16116
C         -4.95882        0.03333        0.16795
O         -4.56967        1.13260       -0.16585
N         -5.81901       -0.22441        1.17779
H         -5.89479       -1.16691        1.55505
O         -6.06079        0.78561        2.06608
H         -6.93765        1.13438        1.84486
H          3.33673        1.27668        0.90284
H          3.23538        1.19609       -0.87204
N          0.72901        2.03837       -1.14364
C          1.51532        2.08414        0.09572
C          1.96954        3.56072        0.07296
C          2.11524        3.84127       -1.42271
O          1.45530        2.74863       -2.08704
H          0.87028        1.94517        0.96568
C          3.20366        3.88898        0.89724
H          1.12491        4.14727        0.46698
H          1.64580        4.78940       -1.72049
H          3.16244        3.82882       -1.75762
O          3.06308        3.49410        2.24460
H          4.08277        3.36073        0.49894
H          3.41228        4.97006        0.81136
H          2.32694        3.98758        2.62691
O          3.48688       -1.11709        0.08153
S          3.49097       -2.78121        0.27965
O          3.71777       -2.98478        1.71206
O          2.14930       -3.20277       -0.17388
O          4.59118       -3.17931       -0.58955
H         -2.03206       -4.43204       -0.24812
H         -0.22390       -0.09766        3.49995
