59
ZTX_ketone_308_solv.log	Energy: -1435165.7148934
C          1.22257       -1.34967        1.20049
N          0.52804       -1.11070        2.44247
C         -0.41904       -0.18433        2.57835
C          0.60732       -2.32963        0.17263
H          2.16814       -1.83960        1.44896
N         -1.16644       -0.14278        3.66475
H         -1.09544       -0.87788        4.36204
H          0.77052       -1.68027        3.24865
N         -0.63420        0.68577        1.56842
C         -0.59331        0.84097       -0.76572
C         -2.05782        0.79690       -0.29287
C         -1.96814        1.16810        1.20148
O         -0.19781        0.81431       -1.89424
H         -2.73882        0.65837        1.79122
H         -2.05769        2.24685        1.37320
O          1.30679       -3.22665       -0.25029
C          1.52036       -0.03444        0.48603
C          0.31505        0.91330        0.48430
N          0.95794        2.20029        0.57458
C          2.21436        2.08922        1.00744
N          2.55621        0.78452        1.13407
H          1.80698       -0.23539       -0.55815
N          2.99338        3.11109        1.26894
H          0.44790        3.06663        0.39583
C          3.90864        0.33864        1.32544
H          3.96751        2.99069        1.52539
C         -2.63930       -0.61228       -0.49997
O          4.69732        0.46891        0.15773
H          4.39284        0.95369        2.09132
H          3.89853       -0.70017        1.67250
C          4.68246       -0.56515       -0.71381
O          4.05255       -1.58810       -0.55439
N          5.43494       -0.25567       -1.79405
H          6.12407        0.49124       -1.73278
O          5.75663       -1.27806       -2.64325
H          5.18416       -1.17232       -3.41798
H         -3.67316       -0.57159       -0.13102
H         -2.67374       -0.79865       -1.58359
N         -0.58818       -1.98847       -0.42860
C         -1.90076       -1.75684        0.19505
C         -2.55145       -3.14255       -0.00253
C         -1.93830       -3.60826       -1.32679
O         -0.84053       -2.71495       -1.58248
H         -1.79291       -1.58533        1.26892
C         -4.07382       -3.18277        0.04498
H         -2.17925       -3.78343        0.81036
H         -1.56661       -4.64157       -1.27895
H         -2.63226       -3.50699       -2.17431
O         -4.56273       -4.50668        0.05130
H         -4.41878       -2.71010        0.97711
H         -4.50049       -2.60988       -0.79683
H         -4.42419       -4.88405       -0.82568
O         -2.86617        1.64758       -1.07149
S         -2.61425        3.30396       -1.02518
O         -3.00978        3.70053       -2.37073
O         -3.48508        3.78222        0.05106
O         -1.17344        3.44416       -0.72901
H          2.62679        4.05501        1.19038
H         -1.77276        0.64969        3.85142
