59
ZTX_ketone_93_solv.log	Energy: -1435170.4001678
C          1.19269       -1.62434       -0.37098
N          1.21298       -1.51541        1.06725
C          0.51323       -0.59898        1.73254
C          0.09799       -2.47642       -1.05793
H          2.11154       -2.14411       -0.66157
N          0.39377       -0.66036        3.04452
H          0.75022       -1.46245        3.55580
H          1.79014       -2.16691        1.59219
N         -0.11640        0.37086        1.03674
C         -1.17403        0.85536       -0.98769
C         -2.23691        0.75116        0.12066
C         -1.42435        0.90483        1.42192
O         -1.36830        0.98030       -2.16153
H         -1.85441        0.31317        2.23880
H         -1.34703        1.94758        1.75035
O          0.45687       -3.32792       -1.84609
C          1.19296       -0.24047       -1.02133
C          0.22241        0.73191       -0.33573
N          0.95302        1.97441       -0.40917
C          2.25766        1.75773       -0.60394
N          2.47400        0.45901       -0.91194
H          0.92319       -0.33272       -2.08616
N          3.19324        2.67248       -0.53223
H          0.53744        2.85026       -0.09322
C          3.66473       -0.05582       -1.53336
H          4.17282        2.36949       -0.49081
C         -2.94433       -0.61283        0.04717
O          4.48672       -0.76719       -0.62790
H          3.37187       -0.78244       -2.29915
H          4.22616        0.75927       -2.00667
C          5.38518       -0.05656        0.08024
O          5.51739        1.15161        0.01268
N          6.13826       -0.88342        0.83195
H          5.84219       -1.84359        0.99597
O          6.91556       -0.32482        1.80514
H          7.82056       -0.32267        1.45817
H         -3.68388       -0.61158        0.85892
H         -3.48446       -0.65678       -0.91019
N         -1.21361       -2.05350       -0.98680
C         -2.05826       -1.84885        0.19977
C         -2.83361       -3.18759        0.21965
C         -2.93187       -3.54308       -1.26467
O         -2.02961       -2.64826       -1.93691
H         -1.44789       -1.80469        1.10434
C         -4.16692       -3.17039        0.93706
H         -2.18072       -3.91556        0.72370
H         -2.63823       -4.58308       -1.46606
H         -3.93102       -3.35600       -1.68344
O         -3.94121       -2.78713        2.27670
H         -4.86309       -2.47859        0.43011
H         -4.61310       -4.17942        0.87580
H         -4.79620       -2.70300        2.71387
O         -3.25588        1.70548       -0.06344
S         -2.89027        3.33681        0.06016
O         -1.47200        3.42100       -0.34514
O         -3.83889        3.92396       -0.87825
O         -3.12044        3.66272        1.46949
H          2.94576        3.61647       -0.25094
H          0.00455        0.11793        3.56693
