59
ZTX_ketone_191_solv.log	Energy: -1435165.7202900
C         -1.25829        1.38716        1.14071
N         -0.50501        1.25629        2.36473
C          0.50675        0.40175        2.50505
C         -0.75241        2.34500        0.03327
H         -2.22298        1.83114        1.40262
N          1.29842        0.46294        3.55835
H          1.20710        1.22581        4.22278
H         -0.75396        1.84964        3.15149
N          0.74004       -0.50155        1.52958
C          0.61430       -0.79617       -0.78673
C          2.09031       -0.63206       -0.38277
C          2.08816       -0.91489        1.13318
O          0.17244       -0.85696       -1.89658
H          2.84518       -0.31760        1.65532
H          2.26079       -1.97200        1.36511
O         -1.53485        3.15940       -0.41242
C         -1.49937        0.02108        0.50315
C         -0.23677       -0.85068        0.50398
N         -0.79165       -2.16708        0.69350
C         -2.04306       -2.11190        1.14949
N         -2.46352       -0.82628        1.22121
H         -1.82978        0.15404       -0.53890
N         -2.75191       -3.16574        1.47630
H         -0.23802       -3.00935        0.53004
C         -3.83518       -0.45694        1.43568
H         -3.72960       -3.09153        1.73690
C          2.56298        0.79763       -0.69476
O         -4.65179       -0.71277        0.30834
H         -4.25040       -1.05214        2.25606
H         -3.88329        0.60070        1.71618
C         -4.75391        0.26835       -0.61739
O         -4.21187        1.34919       -0.53596
N         -5.51025       -0.16594       -1.65112
H         -6.12499       -0.96778       -1.52532
O         -5.95302        0.77497       -2.53890
H         -5.41043        0.66787       -3.33450
H          3.61619        0.84093       -0.38528
H          2.52902        0.92588       -1.78676
N          0.44067        2.05723       -0.59571
C          1.78593        1.92828       -0.01762
C          2.33433        3.34329       -0.30659
C          1.69862        3.66105       -1.65710
O          0.60219        2.73895       -1.79449
H          1.73256        1.80503        1.06669
C          3.84420        3.52346       -0.26843
H          1.89849        4.00161        0.46011
H          1.31934        4.69094       -1.71176
H          2.38147        3.47591       -2.49961
O          4.37974        3.32503        1.02190
H          4.33181        2.87378       -1.01651
H          4.07313        4.56150       -0.55270
H          4.38098        2.38040        1.21681
O          2.92121       -1.47415       -1.14660
S          2.78066       -3.13785       -0.99085
O          1.36275       -3.34928       -0.63211
O          3.71570       -3.49336        0.07904
O          3.15562       -3.59089       -2.32415
H         -2.33084       -4.08896        1.43026
H          1.96566       -0.27679        3.75337
