59
ZTX_ketone_321_solv.log	Energy: -1435165.4851685
C         -1.70702        0.82243       -0.60158
N         -1.74360        0.84127        0.84078
C         -0.83713        0.20607        1.58150
C         -0.91516        1.91472       -1.35928
H         -2.72740        1.01604       -0.94637
N         -0.84005        0.33674        2.89473
H         -1.47485        0.99393        3.33816
H         -2.64744        1.05551        1.28236
N          0.11925       -0.52300        0.96969
C          1.35664       -0.73492       -0.99709
C          2.27898       -0.23033        0.13075
C          1.50920       -0.58231        1.42010
O          1.62945       -0.84066       -2.15698
H          1.68464        0.15544        2.21248
H          1.76300       -1.57632        1.80616
O         -1.48579        2.49564       -2.26233
C         -1.25230       -0.53914       -1.12970
C         -0.02134       -1.06118       -0.37898
N         -0.27074       -2.48289       -0.37462
C         -1.57251       -2.74259       -0.52986
N         -2.22127       -1.62493       -0.91798
H         -1.01958       -0.46139       -2.20309
N         -2.11050       -3.92489       -0.34693
H          0.44503       -3.14864       -0.08159
C         -3.63267       -1.44735       -1.01414
H         -3.09153       -4.10058       -0.53841
C          2.49623        1.28608       -0.00073
O         -4.07036       -0.85340        0.20476
H         -3.86651       -0.78850       -1.86109
H         -4.13772       -2.40830       -1.17073
C         -5.22839       -0.18756        0.17514
O         -6.03185       -0.24353       -0.73214
N         -5.43755        0.52345        1.31989
H         -6.16630        1.23297        1.27426
O         -4.35765        0.90296        2.08128
H         -4.33921        0.31407        2.85129
H          3.14887        1.57084        0.83487
H          3.04403        1.46338       -0.93815
N          0.44638        1.99856       -1.18817
C          1.24092        2.15858        0.03760
C          1.52475        3.67651       -0.02110
C          1.61133        3.94249       -1.52409
O          1.07544        2.76629       -2.15616
H          0.62880        1.96451        0.92148
C          2.72872        4.15933        0.77101
H          0.62685        4.17224        0.37968
H          1.02811        4.82247       -1.82985
H          2.64701        4.04711       -1.87815
O          2.65457        3.78701        2.12996
H          3.65407        3.72157        0.36801
H          2.81484        5.25426        0.65515
H          1.87556        4.20881        2.51314
O          3.56308       -0.79942        0.02542
S          3.75497       -2.44962        0.24407
O          2.47315       -3.02629       -0.21156
O          4.89944       -2.72966       -0.61406
O          3.99441       -2.61133        1.67992
H         -1.53374       -4.69354       -0.01862
H         -0.26212       -0.25794        3.47993
