59
ZTX_ketone_135_solv.log	Energy: -1435166.4950948
C          0.74322       -1.86999        0.94685
N          0.18646       -1.56736        2.24290
C         -0.50543       -0.45673        2.49088
C         -0.13616       -2.58030       -0.11228
H          1.54085       -2.60177        1.10444
N         -1.18264       -0.32116        3.61444
H         -1.27225       -1.10297        4.25682
H          0.31048       -2.24419        2.99059
N         -0.53915        0.51187        1.55292
C         -0.53990        0.85531       -0.75819
C         -1.95167        1.13215       -0.20941
C         -1.71925        1.34098        1.30088
O         -0.20492        0.82312       -1.90597
H         -2.57240        0.98957        1.89318
H         -1.52713        2.38950        1.55634
O          0.31599       -3.57309       -0.64590
C          1.33231       -0.61841        0.29909
C          0.40158        0.59463        0.44146
N          1.34438        1.67234        0.59795
C          2.56212        1.22416        0.90497
N          2.57118       -0.13170        0.91790
H          1.51018       -0.80675       -0.77217
N          3.59276        1.99025        1.17172
H          1.06877        2.64760        0.47483
C          3.74710       -0.94023        1.04509
H          4.54016        1.60055        1.10118
C         -2.87157       -0.06942       -0.48651
O          4.41267       -1.13425       -0.19289
H          4.42233       -0.49584        1.78581
H          3.45854       -1.93812        1.38794
C          5.46607       -0.34996       -0.46523
O          5.85750        0.55691        0.25382
N          6.03457       -0.64012       -1.65161
H          6.94294       -0.22887       -1.85638
O          5.75748       -1.81742       -2.28854
H          5.13611       -1.59885       -2.99976
H         -3.85133        0.19607       -0.06657
H         -2.98313       -0.15410       -1.57769
N         -1.23756       -1.91911       -0.61487
C         -2.42570       -1.41412        0.09022
C         -3.41457       -2.57088       -0.16944
C         -2.98731       -3.06321       -1.55495
O         -1.70305       -2.46415       -1.80181
H         -2.24364       -1.36505        1.16689
C         -4.89410       -2.23111       -0.03684
H         -3.18872       -3.34945        0.57406
H         -2.89634       -4.15744       -1.60509
H         -3.65808       -2.71387       -2.35383
O         -5.70325       -3.38745       -0.05907
H         -5.06529       -1.74173        0.93406
H         -5.19908       -1.52157       -0.82577
H         -5.71190       -3.73546       -0.95870
O         -2.55076        2.21737       -0.87733
S         -1.89284        3.75142       -0.72453
O         -2.23325        4.34677       -2.01028
O         -2.57054        4.33356        0.43613
O         -0.45152        3.50842       -0.50848
H          3.47373        2.99834        1.13224
H         -1.59071        0.57127        3.87359
