59
ZTX_ketone_217_solv.log	Energy: -1435165.1540506
C         -1.06012        1.59545        1.08489
N         -0.42366        1.33744        2.35388
C          0.41764        0.32350        2.55023
C         -0.31576        2.44851        0.02821
H         -1.94768        2.20265        1.28622
N          1.14316        0.25570        3.65026
H          1.14079        1.02740        4.31093
H         -0.61640        1.96767        3.12754
N          0.55053       -0.61147        1.58564
C          0.52775       -0.88160       -0.73700
C          1.98004       -0.98189       -0.23606
C          1.82562       -1.26130        1.27330
O          0.15596       -0.86582       -1.87374
H          2.63943       -0.81168        1.85414
H          1.78756       -2.33292        1.50033
O         -0.89858        3.39986       -0.44921
C         -1.49240        0.28973        0.42242
C         -0.40203       -0.78668        0.49501
N         -1.18616       -1.98817        0.63326
C         -2.43401       -1.71697        1.01529
N         -2.62643       -0.37816        1.07781
H         -1.73336        0.47246       -0.63662
N         -3.33311       -2.63216        1.28829
H         -0.77690       -2.91303        0.49189
C         -3.91954        0.22140        1.24380
H         -4.30263       -2.39679        1.47484
C          2.72039        0.33937       -0.50352
O         -4.71486        0.13745        0.07468
H         -4.46971       -0.31625        2.02340
H         -3.79779        1.26324        1.55835
C         -4.57169        1.12062       -0.83237
O         -3.80660        2.05799       -0.71282
N         -5.41631        0.97980       -1.87935
H         -5.21836        1.53138       -2.71176
O         -6.03600       -0.21930       -2.10971
H         -6.95877       -0.09910       -1.84004
H          3.73906        0.20135       -0.11643
H          2.78679        0.46534       -1.59438
N          0.84148        1.94518       -0.53370
C          2.11109        1.59428        0.12260
C          2.92306        2.88459       -0.12626
C          2.36802        3.37253       -1.46916
O          1.19084        2.58380       -1.71335
H          1.96833        1.48775        1.20085
C          4.43978        2.74257       -0.07990
H          2.63461        3.59606        0.66129
H          2.09902        4.43825       -1.45108
H          3.05387        3.18168       -2.30770
O          5.08353        3.99759       -0.12749
H          4.72998        2.27001        0.87079
H          4.79000        2.08906       -0.89792
H          4.99940        4.34682       -1.02286
O          2.69717       -1.95838       -0.95413
S          2.25677       -3.57080       -0.83280
O          2.63033       -4.07767       -2.14705
O          3.04518       -4.08899        0.28755
O          0.80365       -3.53166       -0.56664
H         -3.07404       -3.61373        1.25170
H          1.66000       -0.58561        3.88531
