59
ZTX_ketone_266_solv.log	Energy: -1435166.9223973
C         -1.53725        1.18318       -0.45113
N         -1.60344        1.08698        0.98762
C         -0.79541        0.29919        1.69476
C         -0.58522        2.20920       -1.10789
H         -2.52316        1.52886       -0.77592
N         -0.76412        0.36560        3.01145
H         -1.27774        1.09265        3.50074
H         -2.37501        1.55275        1.45938
N          0.03781       -0.53401        1.03778
C          1.26673       -0.78954       -0.93108
C          2.23423       -0.50101        0.23128
C          1.40081       -0.81903        1.48872
O          1.53921       -0.86472       -2.09348
H          1.67043       -0.16884        2.32914
H          1.50239       -1.86174        1.81049
O         -1.05376        2.95260       -1.94813
C         -1.27159       -0.18347       -1.07733
C         -0.15638       -0.94552       -0.34867
N         -0.61487       -2.30879       -0.45466
C         -1.92562       -2.35587       -0.70401
N         -2.39741       -1.12162       -0.98264
H         -0.99036       -0.05688       -2.13482
N         -2.64236       -3.45441       -0.68702
H         -0.02721       -3.09156       -0.16635
C         -3.70228       -0.87508       -1.54684
H         -3.63992       -3.43843       -0.87284
C          2.67774        0.97162        0.19428
O         -4.71663       -0.93969       -0.56539
H         -3.69164        0.09967       -2.04854
H         -3.95626       -1.64919       -2.28125
C         -5.01991        0.18356        0.12052
O         -4.58918        1.28825       -0.13242
N         -5.84618       -0.12563        1.14604
H         -6.35113       -1.01015        1.13356
O         -6.50519        0.91118        1.74716
H         -6.06989        1.04450        2.60245
H          3.37611        1.10626        1.02984
H          3.24147        1.12400       -0.73722
N          0.77383        2.06611       -0.94072
C          1.56552        2.01536        0.29801
C          2.04303        3.48555        0.37259
C          2.17074        3.87210       -1.10360
O          1.51950        2.81866       -1.83509
H          0.91483        1.83800        1.15752
C          3.25903        3.79059        1.23054
H          1.20488        4.04509        0.81250
H          1.68248        4.83167       -1.32683
H          3.21278        3.89615       -1.44613
O          4.43850        3.32330        0.61410
H          3.30438        4.88371        1.38265
H          3.11332        3.33003        2.22457
H          5.17645        3.50747        1.20584
O          3.42115       -1.24736        0.09638
S          3.36495       -2.91783        0.21289
O          3.56588       -3.19879        1.63631
O          2.01604       -3.27074       -0.27659
O          4.46275       -3.31139       -0.66147
H         -2.20284       -4.34038       -0.45675
H         -0.26745       -0.33351        3.55467
