59
ZTX_ketone_46_solv.log	Energy: -1435167.7466248
C         -1.26726        1.38988        1.15684
N         -0.51761        1.24886        2.38202
C          0.49294        0.39216        2.51874
C         -0.75636        2.35979        0.06256
H         -2.23263        1.83194        1.41960
N          1.27956        0.44267        3.57636
H          1.18897        1.20202        4.24488
H         -0.76946        1.83516        3.17311
N          0.72893       -0.50258        1.53624
C          0.61076       -0.77948       -0.78281
C          2.08504       -0.62065       -0.37251
C          2.07753       -0.91571        1.14114
O          0.17179       -0.82878       -1.89441
H          2.83374       -0.32405        1.67041
H          2.24717       -1.97494        1.36546
O         -1.53506        3.18275       -0.37393
C         -1.50675        0.02924        0.50735
C         -0.24455       -0.84279        0.50466
N         -0.80032       -2.16043        0.68214
C         -2.05144       -2.10804        1.13892
N         -2.47239       -0.82298        1.21778
H         -1.83597        0.17006       -0.53400
N         -2.75940       -3.16407        1.46022
H         -0.24550       -3.00142        0.51629
C         -3.84601       -0.45727        1.42511
H         -3.73709       -3.09248        1.72131
C          2.56057        0.81073       -0.67074
O         -4.65487       -0.71564        0.29259
H         -4.26377       -1.05351        2.24359
H         -3.89772        0.60035        1.70485
C         -4.76865        0.27052       -0.62571
O         -4.19876        1.33797       -0.56179
N         -5.64457       -0.10700       -1.58519
H         -5.86906       -1.09358       -1.69990
O         -5.66092        0.63063       -2.73701
H         -6.46849        1.16482       -2.70123
H          3.60731        0.85789       -0.34271
H          2.53536        0.94912       -1.76172
N          0.43898        2.08127       -0.56651
C          1.78371        1.93740        0.01103
C          2.35223        3.35102       -0.25655
C          1.64621        3.75841       -1.55135
O          0.60927        2.78225       -1.75020
H          1.72577        1.80123        1.09302
C          3.86190        3.45365       -0.31900
H          1.99686        3.98881        0.56631
H          1.20130        4.76153       -1.48704
H          2.30227        3.70347       -2.43162
O          4.38443        3.00577        0.91364
H          4.24863        2.85472       -1.16268
H          4.13732        4.50547       -0.51584
H          5.34525        2.97932        0.84101
O          2.91872       -1.45772       -1.13926
S          2.77472       -3.12211       -1.00047
O          3.70693       -3.49013        0.06774
O          1.35570       -3.33546       -0.64728
O          3.15187       -3.56299       -2.33738
H         -2.33764       -4.08669        1.40886
H          1.94747       -0.29784        3.76606
