59
ZTX_ketone_20_solv.log	Energy: -1435170.0944138
C         -1.19205        1.61972       -0.37706
N         -1.21253        1.51507        1.06156
C         -0.51164        0.60140        1.72954
C         -0.09806        2.47063       -1.06644
H         -2.11145        2.13759       -0.66930
N         -0.39258        0.66644        3.04143
H         -0.75332        1.46796        3.55059
H         -1.79296        2.16544        1.58428
N          0.12011       -0.36878        1.03633
C          1.17836       -0.85786       -0.98656
C          2.24108       -0.74905        0.12160
C          1.42852       -0.90030        1.42320
O          1.37289       -0.98605       -2.15998
H          1.85775       -0.30615        2.23871
H          1.35227       -1.94224        1.75438
O         -0.45770        3.31871       -1.85802
C         -1.19054        0.23390       -1.02339
C         -0.21831       -0.73474       -0.33496
N         -0.94714       -1.97854       -0.40374
C         -2.25230       -1.76414       -0.59784
N         -2.47047       -0.46702       -0.91136
H         -0.92120        0.32335       -2.08857
N         -3.18685       -2.67938       -0.52061
H         -0.53050       -2.85244       -0.08377
C         -3.66115        0.04296       -1.53693
H         -4.16673       -2.37711       -0.48000
C          2.94667        0.61588        0.04535
O         -4.48511        0.75832       -0.63641
H         -3.36822        0.76584       -2.30622
H         -4.22090       -0.77538       -2.00669
C         -5.38269        0.05041        0.07555
O         -5.51224       -1.15846        0.01583
N         -6.13802        0.88043        0.82137
H         -5.84515        1.84270        0.97862
O         -6.91553        0.32667        1.79713
H         -7.82006        0.32030        1.44894
H          3.68671        0.61562        0.85634
H          3.48706        0.65862       -0.91196
N          1.21377        2.04934       -0.99297
C          2.05802        1.85052        0.19483
C          2.82860        3.19071        0.20937
C          2.94108        3.53016       -1.27704
O          2.02925        2.64147       -1.94580
H          1.44775        1.80747        1.09960
C          4.15389        3.18767        0.95315
H          2.16340        3.92212        0.69444
H          2.66440        4.57195       -1.49228
H          3.94060        3.32383       -1.68628
O          4.01144        2.75964        2.29008
H          4.86408        2.50033        0.46975
H          4.59572        4.19826        0.89622
H          3.43018        3.38283        2.74328
O          3.26136       -1.70234       -0.06006
S          2.89829       -3.33385        0.06873
O          3.12833       -3.65483        1.47919
O          1.48028       -3.42152       -0.33682
O          3.84817       -3.92249       -0.86745
H         -2.93816       -3.62196       -0.23573
H         -0.00391       -0.11062        3.56610
