59
ZTX_ketone_176_solv.log	Energy: -1435165.1630679
C          1.07311       -1.57269        1.09137
N          0.43426       -1.31578        2.35950
C         -0.41739       -0.30974        2.55166
C          0.33787       -2.43978        0.03969
H          1.96789       -2.16821        1.29547
N         -1.14128       -0.24247        3.65271
H         -1.12876       -1.00937        4.31880
H          0.63732       -1.93776        3.13720
N         -0.56263        0.61757        1.58141
C         -0.54287        0.87916       -0.74204
C         -1.99636        0.96428       -0.24172
C         -1.84588        1.25004        1.26676
O         -0.17070        0.86394       -1.87868
H         -2.65386        0.79141        1.84875
H         -1.82216        2.32273        1.49080
O          0.92939       -3.38900       -0.43095
C          1.49028       -0.26553        0.42191
C          0.38792        0.79909        0.49031
N          1.15852        2.00975        0.62386
C          2.40998        1.75432        1.00443
N          2.61822        0.41801        1.07211
H          1.73143       -0.45075       -0.63664
N          3.29911        2.68089        1.27116
H          0.73835        2.92946        0.48112
C          3.92043       -0.16436        1.23073
H          4.27009        2.45662        1.46370
C         -2.72112       -0.36648       -0.50504
O          4.70252       -0.07971        0.05300
H          4.47103        0.38675        2.00070
H          3.81475       -1.20505        1.55481
C          4.57244       -1.07867       -0.83895
O          3.82463       -2.02763       -0.70168
N          5.33515       -0.88720       -1.93867
H          5.47163       -1.68552       -2.55541
O          6.35894        0.02160       -1.92342
H          6.04925        0.78118       -2.43942
H         -3.74173       -0.23844       -0.11966
H         -2.78477       -0.49752       -1.59546
N         -0.82344       -1.95008       -0.52667
C         -2.09791       -1.61154        0.12706
C         -2.89405       -2.91264       -0.11683
C         -2.33214       -3.39971       -1.45718
O         -1.16430       -2.59800       -1.70378
H         -1.95763       -1.49849        1.20507
C         -4.41238       -2.78878       -0.07214
H         -2.59749       -3.61717        0.67396
H         -2.05038       -4.46204       -1.43426
H         -3.01953       -3.22074       -2.29708
O         -5.04092       -4.05159       -0.11698
H         -4.70899       -2.31712        0.87701
H         -4.76977       -2.14176       -0.89224
H         -4.95359       -4.40117       -1.01190
O         -2.72460        1.93013       -0.96301
S         -2.30262        3.54797       -0.84696
O         -3.09744        4.06100        0.27122
O         -0.84927        3.52609       -0.57992
O         -2.68106        4.04611       -2.16315
H          3.02897        3.65938        1.23269
H         -1.66455        0.59590        3.88425
