59
ZTX_ketone_186_solv.log	Energy: -1435168.2376321
C         -1.54875        1.10863       -0.57991
N         -1.60060        1.10203        0.86211
C         -0.76531        0.38445        1.61093
C         -0.63356        2.11558       -1.31394
H         -2.54700        1.40485       -0.91491
N         -0.72626        0.53995        2.91978
H         -1.25505        1.28605        3.36195
H         -2.38756        1.56740        1.30887
N          0.08330       -0.46939        1.00177
C          1.30472       -0.80005       -0.96143
C          2.27190       -0.41549        0.17346
C          1.45762       -0.68789        1.45469
O          1.56862       -0.92643       -2.12134
H          1.71309        0.01613        2.25533
H          1.59330       -1.70807        1.83171
O         -1.12708        2.77120       -2.21146
C         -1.24959       -0.28666       -1.12198
C         -0.10786       -0.96919       -0.35618
N         -0.52486       -2.34944       -0.37543
C         -1.83388       -2.45198       -0.61889
N         -2.34490       -1.25116       -0.96317
H         -0.97627       -0.21816       -2.18683
N         -2.51484       -3.57028       -0.54084
H          0.09259       -3.09827       -0.06082
C         -3.67792       -1.07095       -1.48176
H         -3.51061       -3.60284       -0.73489
C          2.66559        1.06651        0.05611
O         -4.64460       -1.10781       -0.45129
H         -3.71965       -0.12682       -2.03778
H         -3.93992       -1.89271       -2.15961
C         -4.96762        0.04703        0.17021
O         -4.57444        1.14598       -0.15979
N         -5.83251       -0.21066        1.17606
H         -5.91248       -1.15378        1.55084
O         -6.07562        0.79805        2.06544
H         -6.95042        1.14983        1.84082
H          3.34312        1.26536        0.89693
H          3.23288        1.18820       -0.87857
N          0.72740        2.04074       -1.13362
C          1.52139        2.07948        0.10153
C          1.98161        3.55624        0.08546
C          2.08482        3.86056       -1.41050
O          1.45056        2.75460       -2.07548
H          0.88053        1.93836        0.97425
C          3.24273        3.86620        0.86434
H          1.15688        4.14184        0.51786
H          1.57512        4.79571       -1.68266
H          3.12298        3.88991       -1.77035
O          3.03032        3.49947        2.21083
H          4.10183        3.32518        0.42891
H          3.45941        4.94556        0.76965
H          3.85650        3.62738        2.69075
O          3.48193       -1.12833        0.06993
S          3.48120       -2.79275        0.26526
O          2.13709       -3.20937       -0.18557
O          4.57798       -3.19281       -0.60738
O          3.71109       -2.99949        1.69676
H         -2.04721       -4.42548       -0.25561
H         -0.21047       -0.10940        3.50542
