59
ZTX_ketone_201_solv.log	Energy: -1435168.9569713
C          1.09905       -1.65970       -0.30928
N          1.15413       -1.52595        1.12598
C          0.52395       -0.55561        1.78463
C         -0.06584       -2.44627       -0.95753
H          1.97431       -2.24581       -0.60721
N          0.41922       -0.58782        3.09901
H          0.73053       -1.40238        3.61983
H          1.69439       -2.20544        1.65470
N         -0.05220        0.44198        1.08139
C         -1.10915        0.95998       -0.93514
C         -2.15886        0.94826        0.19164
C         -1.31685        1.06550        1.47758
O         -1.31439        1.07911       -2.10760
H         -1.77133        0.51436        2.30916
H         -1.16741        2.10535        1.79010
O          0.21422       -3.34404       -1.72501
C          1.17914       -0.29021       -0.98390
C          0.28670        0.75597       -0.30237
N          1.09636        1.94581       -0.41254
C          2.37954        1.64122       -0.63014
N          2.50602        0.32288       -0.90609
H          0.88629       -0.37970       -2.04279
N          3.37267        2.49566       -0.60378
H          0.74060        2.85606       -0.12133
C          3.64303       -0.28433       -1.54580
H          4.33208        2.13227       -0.57992
C         -2.96309       -0.36278        0.15225
O          4.44381       -1.02414       -0.64440
H          3.28195       -1.01128       -2.28186
H          4.24305        0.47619       -2.06055
C          5.38913       -0.34968        0.03728
O          5.61879        0.83819       -0.09366
N          6.00936       -1.17572        0.90477
H          5.93865       -2.18448        0.78401
O          7.16463       -0.73004        1.48165
H          6.93473       -0.48924        2.39195
H         -3.69331       -0.29156        0.96983
H         -3.51883       -0.38358       -0.79699
N         -1.34107       -1.91782       -0.88429
C         -2.16253       -1.65577        0.30958
C         -3.02603       -2.93603        0.33894
C         -3.15702       -3.29055       -1.14459
O         -2.20340       -2.45739       -1.82628
H         -1.54223       -1.64741        1.20972
C         -4.35661       -2.84541        1.07191
H         -2.41916       -3.70732        0.83844
H         -2.93202       -4.34721       -1.34746
H         -4.14540       -3.04055       -1.55581
O         -5.03677       -4.08137        1.04655
H         -4.18842       -2.49587        2.10662
H         -5.01748       -2.11784        0.57781
H         -4.49667       -4.72612        1.52002
O         -3.11022        1.96978        0.00628
S         -2.62795        3.57289        0.09354
O         -3.54815        4.20939       -0.84083
O         -2.80923        3.94003        1.50002
O         -1.21408        3.54825       -0.33517
H          3.19385        3.46065       -0.34274
H          0.08865        0.22184        3.61404
