59
ZTX_ketone_290_solv.log	Energy: -1435166.0676165
C         -1.54371        1.08604       -0.60735
N         -1.59782        1.09956        0.83468
C         -0.76165        0.39527        1.59496
C         -0.63547        2.08808       -1.35729
H         -2.54293        1.37281       -0.94778
N         -0.72528        0.56853        2.90167
H         -1.26126        1.31570        3.33331
H         -2.38811        1.56721        1.27327
N          0.09270       -0.46248        0.99871
C          1.31356       -0.81630       -0.96064
C          2.27980       -0.40660        0.16613
C          1.46945       -0.66358        1.45297
O          1.57622       -0.95549       -2.11930
H          1.72135        0.05496        2.24223
H          1.61339       -1.67643        1.84628
O         -1.13332        2.71396       -2.27433
C         -1.23993       -0.31602       -1.12844
C         -0.09709       -0.98382       -0.35134
N         -0.51020       -2.36511       -0.34945
C         -1.81846       -2.47551       -0.59467
N         -2.33253       -1.28131       -0.95652
H         -0.96567       -0.26246       -2.19393
N         -2.49529       -3.59526       -0.50288
H          0.10893       -3.10785       -0.02446
C         -3.66771       -1.10969       -1.47218
H         -3.49025       -3.63560       -0.69971
C          2.66159        1.07628        0.02090
O         -4.63049       -1.13521       -0.43765
H         -3.71291       -0.17219       -2.03908
H         -3.93083       -1.93980       -2.13928
C         -4.95715        0.02773        0.16667
O         -4.56810        1.12298       -0.18025
N         -5.82020       -0.21760        1.17706
H         -5.89777       -1.15535        1.56559
O         -6.06584        0.80351        2.05149
H         -6.94124        1.15024        1.82138
H          3.36463        1.28195        0.83936
H          3.21008        1.18846       -0.92600
N          0.72255        2.04347       -1.16380
C          1.51015        2.08234        0.07321
C          1.95353        3.56114        0.05839
C          2.15474        3.81876       -1.43215
O          1.44077        2.76603       -2.10661
H          0.86949        1.93692        0.94526
C          3.14657        3.93002        0.92688
H          1.08746        4.14193        0.41008
H          1.75462        4.79172       -1.74947
H          3.20885        3.73821       -1.73646
O          2.89153        3.73992        2.30185
H          4.04799        3.38198        0.60084
H          3.35809        5.00042        0.78476
H          2.94155        2.79756        2.50210
O          3.49495       -1.11134        0.07252
S          3.50460       -2.77353        0.29107
O          2.16088       -3.20266       -0.14881
O          4.60032       -3.17968       -0.57989
O          3.74065       -2.95823        1.72450
H         -2.02501       -4.44411       -0.20327
H         -0.21134       -0.07352        3.49691
