59
ZTX_ketone_57_solv.log	Energy: -1435167.8605428
C          0.60555       -1.97456        0.89607
N          0.06316       -1.68118        2.20045
C         -0.56880       -0.54271        2.48070
C         -0.30412       -2.60709       -0.18557
H          1.36629       -2.74876        1.03317
N         -1.23326       -0.39985        3.61080
H         -1.36419       -1.19162        4.23346
H          0.15993       -2.38039        2.93136
N         -0.55607        0.45064        1.56831
C         -0.53929        0.85801       -0.73179
C         -1.93589        1.18898       -0.17344
C         -1.69395        1.34388        1.34135
O         -0.20702        0.84110       -1.88067
H         -2.56275        1.01796        1.92504
H         -1.45015        2.37422        1.62523
O          0.10122       -3.60294       -0.74999
C          1.25692       -0.73587        0.28432
C          0.38819        0.51789        0.45897
N          1.38470        1.54224        0.64435
C          2.57710        1.02405        0.94229
N          2.51549       -0.32998        0.92077
H          1.42975       -0.90341       -0.79126
N          3.64560        1.72828        1.23089
H          1.15739        2.53286        0.54610
C          3.64257       -1.20700        1.04009
H          4.57153        1.29362        1.14909
C         -2.91522        0.04438       -0.48497
O          4.29490       -1.43238       -0.19808
H          4.34230       -0.80833        1.78399
H          3.29485       -2.18813        1.37655
C          5.37226       -0.67597       -0.48843
O          5.81508        0.20083        0.23075
N          5.85573       -1.01199       -1.70019
H          5.58747       -1.89220       -2.13612
O          7.07979       -0.52146       -2.05317
H          6.90995        0.20261       -2.67485
H         -3.87941        0.34356       -0.05177
H         -3.03379        0.00285       -1.57781
N         -1.36780       -1.87498       -0.67217
C         -2.53901       -1.34161        0.04169
C         -3.57910       -2.43806       -0.27493
C         -3.14652       -2.92399       -1.66162
O         -1.84553       -2.35140       -1.88281
H         -2.36633       -1.34434        1.12105
C         -5.03549       -2.02596       -0.18875
H         -3.41729       -3.24601        0.45395
H         -3.07977       -4.01942       -1.72251
H         -3.79625       -2.55000       -2.46558
O         -5.81123       -3.18513       -0.40688
H         -5.23650       -1.58591        0.80555
H         -5.25957       -1.25592       -0.94786
H         -6.73407       -2.91663       -0.47761
O         -2.47898        2.32234       -0.80921
S         -1.74138        3.81487       -0.61468
O         -0.31465        3.49001       -0.40847
O         -2.05021        4.46387       -1.88226
O         -2.38659        4.39879        0.56357
H          3.57820        2.74171        1.22316
H         -1.59367        0.50632        3.89208
