59
ZTX_ketone_90_solv.log	Energy: -1435167.1007418
C          0.74638       -1.86512        0.95604
N          0.19261       -1.55859        2.25242
C         -0.49874       -0.44722        2.49862
C         -0.13568       -2.57773       -0.09921
H          1.54458       -2.59627        1.11376
N         -1.17368       -0.30862        3.62325
H         -1.26054       -1.08819        4.26869
H          0.31857       -2.23302        3.00195
N         -0.53433        0.51889        1.55819
C         -0.54354        0.85241       -0.75447
C         -1.95300        1.13239       -0.20133
C         -1.71441        1.34817        1.30700
O         -0.21295        0.81493       -1.90334
H         -2.56563        1.00045        1.90423
H         -1.52003        2.39760        1.55692
O          0.31655       -3.57010       -0.63365
C          1.33346       -0.61542        0.30290
C          0.40238        0.59739        0.44294
N          1.34489        1.67653        0.59136
C          2.56392        1.23042        0.89625
N          2.57335       -0.12537        0.91700
H          1.50905       -0.80737       -0.76811
N          3.59544        1.99816        1.15458
H          1.06859        2.65093        0.46279
C          3.74999       -0.93265        1.04534
H          4.54260        1.60815        1.08254
C         -2.87486       -0.06974       -0.46874
O          4.41025       -1.13557       -0.19406
H          4.42806       -0.48232        1.77986
H          3.46334       -1.92805        1.39685
C          5.46119       -0.35188       -0.47747
O          5.85572        0.56003        0.23348
N          6.02341       -0.64916       -1.66504
H          6.93028       -0.23847       -1.87749
O          5.74330       -1.83033       -2.29332
H          5.11893       -1.61599       -3.00318
H         -3.85148        0.19717       -0.04233
H         -2.99410       -0.15744       -1.55892
N         -1.24009       -1.91933       -0.59882
C         -2.42775       -1.41378        0.10818
C         -3.41743       -2.56995       -0.15253
C         -2.98201       -3.08084       -1.52841
O         -1.70728       -2.46477       -1.78438
H         -2.24282       -1.36325        1.18434
C         -4.89852       -2.23332       -0.05715
H         -3.19806       -3.34175        0.60170
H         -2.87253       -4.17407       -1.55785
H         -3.65607       -2.75765       -2.33447
O         -5.69679       -3.37161       -0.29803
H         -5.11482       -1.78672        0.93016
H         -5.17491       -1.49513       -0.82448
H         -5.50986       -4.01663        0.39508
O         -2.55443        2.21472       -0.87186
S         -1.89561        3.74933       -0.72898
O         -2.56797        4.33682        0.43212
O         -0.45334        3.50722       -0.51834
O         -2.24171        4.33886       -2.01587
H          3.47618        3.00601        1.10974
H         -1.57991        0.58489        3.88156
