59
ZTX_ketone_99_solv.log	Energy: -1435168.2373497
C         -1.54876        1.10862       -0.57984
N         -1.60057        1.10201        0.86218
C         -0.76526        0.38442        1.61097
C         -0.63356        2.11555       -1.31391
H         -2.54700        1.40487       -0.91485
N         -0.72613        0.53996        2.91981
H         -1.25498        1.28600        3.36201
H         -2.38745        1.56748        1.30898
N          0.08332       -0.46943        1.00179
C          1.30471       -0.80001       -0.96144
C          2.27191       -0.41548        0.17344
C          1.45765       -0.68792        1.45468
O          1.56858       -0.92633       -2.12136
H          1.71312        0.01609        2.25533
H          1.59335       -1.70809        1.83170
O         -1.12708        2.77112       -2.21146
C         -1.24961       -0.28666       -1.12194
C         -0.10786       -0.96919       -0.35618
N         -0.52486       -2.34945       -0.37545
C         -1.83389       -2.45198       -0.61885
N         -2.34491       -1.25117       -0.96317
H         -0.97630       -0.21812       -2.18680
N         -2.51487       -3.57027       -0.54071
H          0.09253       -3.09825       -0.06065
C         -3.67794       -1.07094       -1.48174
H         -3.51063       -3.60280       -0.73480
C          2.66559        1.06653        0.05614
O         -4.64460       -1.10785       -0.45126
H         -3.71967       -0.12678       -2.03770
H         -3.93993       -1.89268       -2.15962
C         -4.96772        0.04700        0.17017
O         -4.57464        1.14596       -0.15990
N         -5.83257       -0.21071        1.17604
H         -5.91250       -1.15383        1.55084
O         -6.07576        0.79802        2.06540
H         -6.95056        1.14976        1.84073
H          3.34308        1.26536        0.89699
H          3.23289        1.18826       -0.87851
N          0.72740        2.04069       -1.13360
C          1.52136        2.07947        0.10156
C          1.98155        3.55625        0.08550
C          2.08460        3.86063       -1.41047
O          1.45059        2.75454       -2.07544
H          0.88050        1.93833        0.97427
C          3.24275        3.86619        0.86427
H          1.15687        4.14181        0.51802
H          1.57464        4.79567       -1.68256
H          3.12273        3.89028       -1.77039
O          3.03044        3.49947        2.21077
H          4.10180        3.32516        0.42876
H          3.45944        4.94554        0.76955
H          3.85660        3.62757        2.69068
O          3.48195       -1.12831        0.06986
S          3.48129       -2.79271        0.26521
O          3.71112       -2.99944        1.69673
O          2.13722       -3.20940       -0.18568
O          4.57813       -3.19273       -0.60737
H         -2.04724       -4.42548       -0.25555
H         -0.21036       -0.10942        3.50544
