59
ZTX_ketone_51_solv.log	Energy: -1435169.1324292
C          1.10052       -1.65997       -0.30530
N          1.15140       -1.52655        1.13012
C          0.51919       -0.55658        1.78734
C         -0.06166       -2.44738       -0.95747
H          1.97709       -2.24531       -0.60092
N          0.41101       -0.58870        3.10140
H          0.72060       -1.40327        3.62323
H          1.68836       -2.20748        1.66035
N         -0.05535        0.44095        1.08261
C         -1.10662        0.95851       -0.93688
C         -2.15956        0.94562        0.18665
C         -1.32152        1.06373        1.47506
O         -1.30851        1.07718       -2.10997
H         -1.77806        0.51263        2.30555
H         -1.17358        2.10378        1.78765
O          0.22214       -3.34199       -1.72730
C          1.18191       -0.29034       -0.97972
C          0.28744        0.75538       -0.30012
N          1.09694        1.94558       -0.40728
C          2.38093        1.64113       -0.62086
N          2.50834        0.32338       -0.89918
H          0.89129       -0.38005       -2.03921
N          3.37443        2.49485       -0.58952
H          0.74095        2.85491       -0.11360
C          3.64596       -0.28037       -1.54100
H          4.33322        2.12959       -0.56117
C         -2.96254       -0.36604        0.14473
O          4.44901       -1.02003       -0.64151
H          3.28466       -1.00607       -2.27830
H          4.24379        0.48276       -2.05450
C          5.41409       -0.35239        0.01862
O          5.62063        0.84275       -0.08371
N          6.13857       -1.20907        0.76623
H          5.77944       -2.13999        0.96897
O          6.97241       -0.67705        1.70768
H          7.86804       -0.74476        1.34351
H         -3.69620       -0.29401        0.95911
H         -3.51401       -0.38796       -0.80693
N         -1.33853       -1.92324       -0.88498
C         -2.16228       -1.65883        0.30645
C         -3.02513       -2.93903        0.33776
C         -3.14967       -3.30091       -1.14520
O         -2.19876       -2.46502       -1.82730
H         -1.54408       -1.64889        1.20795
C         -4.35118       -2.83471        1.06497
H         -2.42634       -3.70992        0.84513
H         -2.91737       -4.35714       -1.34203
H         -4.13793       -3.05829       -1.56093
O         -4.92589       -4.12401        1.07809
H         -4.18094       -2.45814        2.09063
H         -5.01229       -2.11581        0.54952
H         -5.81529       -4.04871        1.44167
O         -3.11152        1.96596       -0.00209
S         -2.63090        3.56949        0.08687
O         -2.81779        3.93655        1.49261
O         -1.21553        3.54588       -0.33683
O         -3.54831        4.20512       -0.85088
H          3.19507        3.45938       -0.32722
H          0.07794        0.22064        3.61533
