59
ZTX_ketone_151_solv.log	Energy: -1435167.0927536
C          0.60212       -1.98044        0.88162
N          0.06113       -1.69106        2.18748
C         -0.56785       -0.55215        2.47276
C         -0.30907       -2.60712       -0.20242
H          1.36147       -2.75663        1.01533
N         -1.23034       -0.41185        3.60436
H         -1.36212       -1.20567        4.22426
H          0.15778       -2.39284        2.91594
N         -0.55418        0.44438        1.56395
C         -0.54125        0.85781       -0.73508
C         -1.93571        1.19038       -0.17246
C         -1.68970        1.34169        1.34200
O         -0.21181        0.84282       -1.88482
H         -2.55809        1.01727        1.92708
H         -1.44172        2.37060        1.62745
O          0.09684       -3.59910       -0.77360
C          1.25559       -0.74044        0.27447
C          0.38806        0.51342        0.45290
N          1.38545        1.53655        0.63956
C          2.57655        1.01651        0.93953
N          2.51391       -0.33743        0.91362
H          1.42907       -0.90462       -0.80152
N          3.64451        1.71929        1.23318
H          1.15834        2.52769        0.54615
C          3.64029       -1.21528        1.03324
H          4.57075        1.28431        1.15588
C         -2.91777        0.04800       -0.48335
O          4.30061       -1.43169       -0.20237
H          4.33539       -0.82214        1.78439
H          3.29016       -2.19872        1.36040
C          5.38265       -0.67666       -0.47865
O          5.82181        0.19443        0.24974
N          5.87557       -1.00655       -1.68823
H          5.60881       -1.88326       -2.13199
O          7.10312       -0.51597       -2.02861
H          6.93940        0.21131       -2.64820
H         -3.87976        0.34749       -0.04580
H         -3.04085        0.01139       -1.57585
N         -1.37400       -1.87338       -0.68209
C         -2.54208       -1.34109        0.03626
C         -3.58590       -2.43292       -0.28534
C         -3.17191       -2.87889       -1.69026
O         -1.85308       -2.34325       -1.89576
H         -2.36867       -1.35106        1.11551
C         -5.04788       -2.02505       -0.14921
H         -3.40610       -3.25739        0.42035
H         -3.14293       -3.97264       -1.79483
H         -3.81327       -2.45242       -2.47584
O         -5.91523       -3.13146       -0.27507
H         -5.21143       -1.60202        0.85365
H         -5.30027       -1.24286       -0.88601
H         -5.95027       -3.38519       -1.20511
O         -2.47863        2.32583       -0.80460
S         -1.73848        3.81688       -0.60846
O         -2.05044        4.46949       -1.87343
O         -2.37915        4.39861        0.57334
O         -0.31150        3.48960       -0.40772
H          3.57742        2.73276        1.22927
H         -1.58889        0.49394        3.88918
