59
ZTX_ketone_272_solv.log	Energy: -1435168.0275356
C          1.34927        1.45327        0.75599
N          1.53910        1.41905       -0.67351
C          0.97294        0.48899       -1.44113
C          0.16975        2.25382        1.35342
H          2.21277        1.97901        1.17321
N          1.08709        0.54215       -2.75429
H          1.54029        1.33740       -3.19498
H          2.34185        1.93538       -1.05618
N          0.22668       -0.47445       -0.86027
C         -1.09406       -0.98485        0.99448
C         -1.99573       -0.85742       -0.25143
C         -1.01310       -0.99662       -1.43230
O         -1.44932       -1.12775        2.12769
H         -1.32199       -0.39151       -2.29334
H         -0.89490       -2.03514       -1.76259
O          0.41733        3.02391        2.26051
C          1.30365        0.03787        1.33558
C          0.37594       -0.88038        0.53312
N          1.05501       -2.14970        0.65473
C          2.36137       -1.95938        0.87545
N          2.58244       -0.67943        1.24009
H          0.97553        0.07354        2.38636
N          3.26690       -2.90347        0.78456
H          0.63049       -3.00707        0.29848
C          3.84373       -0.06579        1.53984
H          4.25522       -2.67117        0.81516
C         -2.69975        0.50930       -0.26078
O          4.26129        0.77426        0.47614
H          3.73140        0.59761        2.40409
H          4.59955       -0.82549        1.77043
C          4.71003        0.16910       -0.63567
O          5.02816       -0.99993       -0.70108
N          4.82473        1.03500       -1.67573
H          4.95807        0.62908       -2.59958
O          4.10207        2.20033       -1.67921
H          4.70111        2.90763       -1.39363
H         -3.31660        0.52557       -1.16964
H         -3.37603        0.53993        0.60628
N         -1.11969        1.87658        1.05396
C         -1.78954        1.73851       -0.24818
C         -2.54625        3.08329       -0.31573
C         -2.85264        3.36516        1.15937
O         -2.06109        2.42749        1.90836
H         -1.05645        1.71644       -1.05901
C         -3.76237        3.12845       -1.23320
H         -1.82821        3.83147       -0.68219
H         -2.58671        4.38971        1.45597
H         -3.90280        3.16881        1.42127
O         -4.27697        4.43743       -1.35114
H         -3.46670        2.80741       -2.24362
H         -4.54042        2.43154       -0.87612
H         -4.71040        4.66703       -0.52014
O         -3.03499       -1.80743       -0.22067
S         -2.66949       -3.43847       -0.33596
O         -2.68879       -3.72490       -1.77256
O         -1.32836       -3.55274        0.27329
O         -3.75164       -4.03814        0.43421
H          2.99797       -3.81435        0.42445
H          0.79195       -0.23738       -3.33339
