59
ZTX_ketone_174_solv.log	Energy: -1435166.6179046
C          0.91806       -1.82109        0.93890
N          0.36076       -1.56094        2.24392
C         -0.41729       -0.51117        2.50251
C          0.08890       -2.61138       -0.10492
H          1.77650       -2.48337        1.08481
N         -1.08670       -0.43299        3.63661
H         -1.09370       -1.21904        4.28014
H          0.54907       -2.22356        2.99135
N         -0.54697        0.45235        1.56659
C         -0.62802        0.76537       -0.74888
C         -2.04595        0.92235       -0.17313
C         -1.80285        1.16812        1.33011
O         -0.31497        0.74746       -1.90332
H         -2.60756        0.74696        1.94411
H         -1.70116        2.23220        1.57197
O          0.63143       -3.55013       -0.65441
C          1.38649       -0.52613        0.28042
C          0.35769        0.60306        0.43175
N          1.20708        1.76108        0.55199
C          2.46613        1.42239        0.83422
N          2.58683        0.07325        0.87622
H          1.56360       -0.70379       -0.79291
N          3.43797        2.27521        1.05420
H          0.84715        2.70557        0.40777
C          3.81860       -0.63616        1.05458
H          4.41188        1.96220        0.96382
C         -2.86171       -0.35813       -0.42309
O          4.50001       -0.86866       -0.16750
H          4.45522       -0.09189        1.76168
H          3.60437       -1.62514        1.46995
C          5.47529       -0.01399       -0.51071
O          5.78695        0.97473        0.13597
N          6.06006       -0.33747       -1.67992
H          6.92324        0.14025       -1.93065
O          5.87857       -1.57327       -2.23439
H          5.24012       -1.45393       -2.95416
H         -3.85705       -0.18135        0.00272
H         -2.98035       -0.46493       -1.51103
N         -1.08924       -2.07625       -0.57230
C         -2.29097       -1.65019        0.16249
C         -3.17207       -2.90554       -0.02511
C         -2.77610       -3.37717       -1.42436
O         -1.54739       -2.69272       -1.72793
H         -2.07392       -1.55796        1.22955
C         -4.66927       -2.77361        0.24228
H         -2.79719       -3.63753        0.70630
H         -2.61272       -4.46322       -1.46984
H         -3.49680       -3.08176       -2.19979
O         -5.38204       -1.97854       -0.67813
H         -5.09736       -3.78930        0.29577
H         -4.80461       -2.31639        1.23426
H         -5.48901       -2.47428       -1.49792
O         -2.75099        1.94398       -0.83913
S         -2.22951        3.53080       -0.71239
O         -2.93393        4.06251        0.45652
O         -0.76802        3.41941       -0.52292
O         -2.64483        4.08165       -1.99605
H          3.23531        3.26946        1.00621
H         -1.55119        0.42662        3.91097
