59
ZTX_ketone_278_solv.log	Energy: -1435164.6194690
C         -1.66596        0.89681       -0.51903
N         -1.72836        0.84638        0.92174
C         -0.86232        0.13337        1.64016
C         -0.79309        1.97233       -1.20983
H         -2.66381        1.17422       -0.87049
N         -0.87386        0.19614        2.95809
H         -1.48338        0.85755        3.43002
H         -2.62746        1.08401        1.36155
N          0.06515       -0.60818        1.00040
C          1.31217       -0.81912       -0.95895
C          2.25077       -0.42166        0.19890
C          1.44146       -0.77443        1.46375
O          1.59543       -0.90332       -2.11797
H          1.65263       -0.08283        2.28833
H          1.62569       -1.79761        1.81169
O         -1.31455        2.64438       -2.07745
C         -1.28182       -0.46234       -1.10987
C         -0.09112       -1.08470       -0.36886
N         -0.41927       -2.48902       -0.42014
C         -1.72843       -2.67049       -0.61451
N         -2.31030       -1.50462       -0.96539
H         -1.02999       -0.34456       -2.17509
N         -2.33197       -3.82881       -0.49417
H          0.25828       -3.20525       -0.15508
C         -3.71064       -1.25889       -1.08627
H         -3.31304       -3.94809       -0.72333
C          2.56997        1.08113        0.13332
O         -4.15139       -0.68907        0.14286
H         -3.89681       -0.56168       -1.91390
H         -4.25457       -2.18990       -1.28788
C         -5.24688        0.07593        0.10331
O         -6.01494        0.13160       -0.83406
N         -5.43960        0.75019        1.27231
H         -6.10505        1.52001        1.23911
O         -4.36558        0.99352        2.09475
H         -4.43026        0.36604        2.83137
H          3.23510        1.28656        0.98316
H          3.13726        1.26074       -0.79204
N          0.57423        1.93991       -1.04024
C          1.37031        2.02750        0.19457
C          1.74618        3.52513        0.17621
C          1.82424        3.83511       -1.32187
O          1.25665        2.69115       -1.98358
H          0.74406        1.84029        1.07114
C          2.99274        3.92490        0.95233
H          0.89089        4.06634        0.60987
H          1.25743        4.73607       -1.59632
H          2.85778        3.92742       -1.68427
O          3.22663        5.31334        0.85869
H          2.89698        3.59873        2.00375
H          3.88158        3.43275        0.53056
H          2.47575        5.76841        1.25946
O          3.49602       -1.06927        0.08249
S          3.58431       -2.73444        0.24418
O          3.79512       -2.95980        1.67589
O          2.27629       -3.21699       -0.24539
O          4.72053       -3.05257       -0.61139
H         -1.80203       -4.64052       -0.19137
H         -0.33546       -0.45904        3.51579
