59
ZTX_ketone_143_solv.log	Energy: -1435170.2884523
C         -1.47685        1.34657       -0.79976
N         -1.63538        1.32532        0.63353
C         -0.96079        0.47758        1.40936
C         -0.39992        2.25377       -1.43902
H         -2.39721        1.77126       -1.21069
N         -1.04842        0.55983        2.72320
H         -1.56470        1.32220        3.15236
H         -2.48455        1.75544        1.02256
N         -0.13670       -0.42528        0.83616
C          1.19153       -0.83984       -1.03791
C          2.10068       -0.59270        0.18313
C          1.16297       -0.80482        1.39010
O          1.53519       -0.96730       -2.17659
H          1.42521       -0.15061        2.23040
H          1.15819       -1.84213        1.74433
O         -0.74596        2.97082       -2.35802
C         -1.29825       -0.06897       -1.34934
C         -0.27143       -0.87330       -0.54628
N         -0.82330       -2.20511       -0.63187
C         -2.14512       -2.15144       -0.83641
N         -2.49842       -0.90609       -1.21612
H         -0.99198       -0.02530       -2.40624
N         -2.94873       -3.18165       -0.71903
H         -0.30791       -3.01112       -0.27605
C         -3.81892       -0.42586       -1.50456
H         -3.95652       -3.05367       -0.73529
C          2.65819        0.83927        0.14599
O         -4.30690        0.37574       -0.44130
H         -3.78335        0.23755       -2.37573
H         -4.49510       -1.26158       -1.71777
C         -4.69616       -0.26550        0.67276
O         -4.91303       -1.45751        0.73893
N         -4.87761        0.58756        1.71438
H         -4.96624        0.16827        2.63788
O         -4.24617        1.80531        1.71704
H         -4.90606        2.46895        1.46317
H          3.28471        0.94347        1.04166
H          3.30717        0.92165       -0.73833
N          0.92623        2.03172       -1.15304
C          1.62623        1.96679        0.13747
C          2.23821        3.38605        0.18813
C          2.48774        3.69754       -1.28899
O          1.79117        2.67576       -2.02325
H          0.91233        1.87804        0.95938
C          3.46151        3.54874        1.06602
H          1.44858        4.04991        0.57009
H          2.10399        4.68605       -1.57867
H          3.54756        3.61839       -1.56965
O          3.11136        3.18200        2.38329
H          4.29093        2.92885        0.68122
H          3.79463        4.60105        1.01510
H          3.90925        3.20917        2.92339
O          3.23160       -1.43117        0.14763
S          3.03712       -3.08864        0.29984
O          1.70017       -3.35052       -0.27269
O          4.15659       -3.59029       -0.48716
O          3.11888       -3.34325        1.74002
H         -2.58112       -4.05153       -0.34423
H         -0.66636       -0.16997        3.31592
