59
ZTX_ketone_172_solv.log	Energy: -1435166.9224977
C         -1.53726        1.18307       -0.45147
N         -1.60345        1.08703        0.98728
C         -0.79557        0.29920        1.69452
C         -0.58523        2.20899       -1.10837
H         -2.52314        1.52873       -0.77632
N         -0.76438        0.36568        3.01121
H         -1.27793        1.09284        3.50041
H         -2.37511        1.55275        1.45895
N          0.03764       -0.53412        1.03766
C          1.26675       -0.78953       -0.93110
C          2.23413       -0.50096        0.23135
C          1.40061       -0.81910        1.48872
O          1.53933       -0.86460       -2.09350
H          1.67011       -0.16890        2.32917
H          1.50220       -1.86180        1.81047
O         -1.05370        2.95197       -1.94903
C         -1.27162       -0.18366       -1.07752
C         -0.15640       -0.94563       -0.34881
N         -0.61480       -2.30893       -0.45481
C         -1.92559       -2.35605       -0.70402
N         -2.39741       -1.12182       -0.98272
H         -0.99041       -0.05717       -2.13503
N         -2.64234       -3.45456       -0.68691
H         -0.02711       -3.09166       -0.16648
C         -3.70241       -0.87543       -1.54669
H         -3.63996       -3.43849       -0.87245
C          2.67751        0.97173        0.19443
O         -4.71655       -0.93992       -0.56502
H         -3.69191        0.09924       -2.04858
H         -3.95647       -1.64972       -2.28090
C         -5.01972        0.18348        0.12071
O         -4.58918        1.28814       -0.13265
N         -5.84564       -0.12557        1.14659
H         -6.35071       -1.01001        1.13418
O         -6.50481        0.91137        1.74734
H         -6.06956        1.04503        2.60260
H          3.37582        1.10636        1.03004
H          3.24128        1.12418       -0.73703
N          0.77377        2.06622       -0.94079
C          1.56523        2.01543        0.29809
C          2.04271        3.48563        0.37287
C          2.17026        3.87249       -1.10328
O          1.51961        2.81883       -1.83496
H          0.91441        1.83799        1.15748
C          3.25879        3.79051        1.23076
H          1.20461        4.04509        0.81297
H          1.68144        4.83181       -1.32636
H          3.21227        3.89717       -1.44582
O          4.43821        3.32336        0.61411
H          3.30416        4.88360        1.38309
H          3.11318        3.32973        2.22471
H          5.17623        3.50753        1.20578
O          3.42114       -1.24715        0.09652
S          3.36520       -2.91763        0.21296
O          4.46325       -3.31096       -0.66119
O          3.56591       -3.19862        1.63641
O          2.01644       -3.27076       -0.27679
H         -2.20286       -4.34053       -0.45655
H         -0.26784       -0.33346        3.55452
