59
ZTX_ketone_21_solv.log	Energy: -1435170.1140988
C         -1.19320        1.61964       -0.38127
N         -1.21644        1.51473        1.05726
C         -0.51654        0.60109        1.72633
C         -0.09802        2.47091       -1.06827
H         -2.11230        2.13704       -0.67527
N         -0.40003        0.66607        3.03845
H         -0.76110        1.46795        3.54682
H         -1.79929        2.16385        1.57883
N          0.11670       -0.36901        1.03427
C          1.17898       -0.85811       -0.98664
C          2.23958       -0.74910        0.12348
C          1.42467       -0.89986        1.42367
O          1.37567       -0.98721       -2.15958
H          1.85225       -0.30503        2.23956
H          1.34821       -1.94160        1.75541
O         -0.45590        3.32070       -1.85866
C         -1.18981        0.23404       -1.02770
C         -0.21893       -0.73474       -0.33771
N         -0.94751       -1.97862       -0.40883
C         -2.25197       -1.76488       -0.60741
N         -2.46988       -0.46706       -0.91806
H         -0.91869        0.32360       -2.09241
N         -3.18574       -2.68162       -0.53654
H         -0.53060       -2.85343       -0.09164
C         -3.66126        0.04618       -1.53907
H         -4.16625       -2.38198       -0.49973
C          2.94537        0.61573        0.04794
O         -4.48147        0.76102       -0.63464
H         -3.37067        0.77074       -2.30756
H         -4.22405       -0.76990       -2.00899
C         -5.35752        0.04849        0.09868
O         -5.51138       -1.15535        0.01219
N         -6.00440        0.86034        0.96101
H         -6.01043        1.86604        0.79987
O         -7.11345        0.35871        1.58176
H         -6.84673        0.16777        2.49364
H          3.68370        0.61613        0.86049
H          3.48776        0.65787       -0.90827
N          1.21335        2.04746       -0.99435
C          2.05621        1.85025        0.19482
C          2.82639        3.19070        0.20880
C          2.94049        3.52862       -1.27785
O          2.03001        2.63869       -1.94674
H          1.44474        1.80779        1.09886
C          4.15089        3.18881        0.95395
H          2.16050        3.92249        0.69234
H          2.66349        4.57002       -1.49456
H          3.94062        3.32242       -1.68565
O          4.00713        2.76248        2.29128
H          4.86166        2.50093        0.47216
H          4.59265        4.19938        0.89615
H          3.42536        3.38621        2.74309
O          3.26003       -1.70266       -0.05597
S          2.89643       -3.33397        0.07356
O          3.12273       -3.65358        1.48495
O          1.47942       -3.42189       -0.33549
O          3.84861       -3.92367       -0.85958
H         -2.93713       -3.62468       -0.25305
H         -0.01191       -0.11078        3.56383
