59
ZTX_ketone_169_solv.log	Energy: -1435166.4647421
C          0.83888       -1.88735        0.79618
N          0.23688       -1.68441        2.09144
C         -0.52582       -0.63050        2.37700
C          0.04037       -2.60748       -0.32091
H          1.67932       -2.57338        0.93881
N         -1.22411       -0.58520        3.49501
H         -1.26879       -1.39766        4.10338
H          0.39134       -2.38387        2.81275
N         -0.61291        0.37389        1.48021
C         -0.59751        0.80677       -0.81635
C         -2.03544        0.95863       -0.28828
C         -1.85282        1.11336        1.23550
O         -0.24147        0.83893       -1.95777
H         -2.68497        0.66115        1.78878
H         -1.75764        2.16000        1.54611
O          0.59944       -3.51379       -0.90752
C          1.35803       -0.56734        0.22943
C          0.33780        0.56847        0.39154
N          1.19637        1.70511        0.60642
C          2.42936        1.33168        0.95047
N          2.53309       -0.01960        0.91900
H          1.58754       -0.69083       -0.84123
N          3.39288        2.15596        1.28537
H          0.85155        2.66182        0.51687
C          3.75276       -0.74832        1.10428
H          4.36781        1.83631        1.24158
C         -2.85577       -0.29375       -0.63906
O          4.49750       -0.88386       -0.09579
H          4.35297       -0.26642        1.88497
H          3.51667       -1.76674        1.42536
C          5.50557       -0.02408       -0.30659
O          5.79535        0.89777        0.44117
N          6.15096       -0.25681       -1.46553
H          7.03604        0.22037       -1.62365
O          5.98122       -1.43543       -2.13637
H          5.38108       -1.24213       -2.87288
H         -3.86653       -0.10560       -0.25243
H         -2.92383       -0.35003       -1.73548
N         -1.11900       -2.04169       -0.79498
C         -2.33303       -1.62023       -0.08450
C         -3.24158       -2.83471       -0.37218
C         -2.82736       -3.21108       -1.79155
O         -1.54476       -2.59036       -1.99723
H         -2.15991       -1.58202        0.99292
C         -4.73803       -2.63677       -0.18312
H         -2.91748       -3.62758        0.31881
H         -2.73280       -4.29710       -1.92935
H         -3.50841       -2.80209       -2.55268
O         -5.08132       -2.37421        1.16035
H         -5.11434       -1.85014       -0.86059
H         -5.24739       -3.56986       -0.46688
H         -4.83606       -1.46588        1.37404
O         -2.69927        2.02565       -0.92321
S         -2.15869        3.59501       -0.69161
O         -2.89664        4.07508        0.47880
O         -0.70723        3.44688       -0.45764
O         -2.51955        4.22005       -1.95745
H          3.20339        3.15405        1.28216
H         -1.68827        0.26930        3.78583
