59
ZTX_ketone_311_solv.log	Energy: -1435154.6283448
C         -1.73598        0.97251        0.95177
N         -1.29503        0.93252        2.32384
C         -0.35736        0.09787        2.76909
C         -1.00796        1.85903       -0.08926
H         -2.73963        1.40941        0.95970
N          0.14491        0.23188        3.98009
H         -0.10406        1.03324        4.55272
H         -1.72400        1.57554        2.98441
N          0.10784       -0.86725        1.94513
C          0.59392       -1.19307       -0.32468
C          1.91634       -0.95585        0.43235
C          1.51749       -1.25741        1.88807
O          0.41553       -1.29529       -1.50146
H          2.11345       -0.68485        2.60741
H          1.63571       -2.33015        2.09146
O         -1.71409        2.46670       -0.88162
C         -1.78963       -0.43271        0.35126
C         -0.55816       -1.26441        0.71670
N         -1.12584       -2.58941        0.78298
C         -2.46089       -2.55134        0.88026
N         -2.90500       -1.27586        0.79459
H         -1.82184       -0.35692       -0.74726
N         -3.20120       -3.61992        1.04317
H         -0.57458       -3.41847        0.99330
C         -4.25906       -0.89440        0.45440
H         -4.21146       -3.56852        1.11755
C          2.41037        0.49272        0.24510
O         -4.34412       -0.63480       -0.93154
H         -4.95301       -1.70149        0.70575
H         -4.54516       -0.00166        1.02340
C         -4.36788        0.67646       -1.30291
O         -4.82557        1.56649       -0.62173
N         -3.81805        0.81658       -2.52708
H         -3.21405        0.08402       -2.89611
O         -3.56965        2.08523       -2.96730
H         -2.85083        2.41858       -2.39226
H          3.32405        0.56314        0.85145
H          2.69717        0.60951       -0.80824
N          0.33367        1.74740       -0.27318
C          1.47202        1.63099        0.64861
C          2.09167        3.03228        0.46859
C          1.80883        3.33311       -1.00456
O          0.80002        2.38732       -1.40746
H          1.12334        1.54448        1.67996
C          3.54653        3.17999        0.86736
H          1.50205        3.71918        1.09386
H          1.43226        4.35263       -1.16420
H          2.68375        3.15751       -1.64661
O          3.88035        4.54552        0.73901
H          3.67899        2.82664        1.90673
H          4.18615        2.55763        0.21723
H          4.82762        4.63593        0.89320
O          2.95144       -1.86003        0.12088
S          3.43595       -2.32264       -1.42060
O          2.48349       -3.36787       -1.80789
O          3.38782       -1.11298       -2.25059
O          4.78054       -2.80930       -1.11449
H         -2.75889       -4.53135        1.12060
H          0.74140       -0.48594        4.37920
