59
ZTX_ketone_223_solv.log	Energy: -1435156.7351074
C          0.85977       -2.08439        0.37922
N          0.41041       -2.29005        1.73569
C         -0.21530       -1.35146        2.44378
C         -0.11065       -2.34590       -0.79823
H          1.64689       -2.82021        0.18978
N         -0.78920       -1.64194        3.59449
H         -0.85486       -2.60645        3.90640
H          0.57178       -3.19670        2.16567
N         -0.29024       -0.10048        1.94404
C         -0.46973        1.08579       -0.06662
C         -1.83948        1.11418        0.64683
C         -1.45612        0.76931        2.09759
O         -0.17933        1.51947       -1.14126
H         -2.26353        0.25207        2.62809
H         -1.19401        1.68717        2.64135
O          0.27875       -3.05444       -1.70426
C          1.43172       -0.67790        0.19693
C          0.55496        0.39075        0.87051
N          1.54949        1.33008        1.33197
C          2.77163        0.78826        1.35074
N          2.73589       -0.46128        0.83301
H          1.51096       -0.44884       -0.87768
N          3.84186        1.38534        1.81683
H          1.32165        2.22013        1.76810
C          3.89517       -1.24602        0.51878
H          4.76827        1.05415        1.52484
C         -2.81071        0.08106        0.04431
O          4.43769       -0.93467       -0.75250
H          4.64758       -1.11988        1.30612
H          3.60882       -2.30081        0.47673
C          5.50360       -0.10981       -0.79714
O          5.97071        0.46747        0.16739
N          5.99254       -0.05923       -2.05144
H          5.43501       -0.39733       -2.83344
O          6.88719        0.93017       -2.34278
H          7.75877        0.50665       -2.36751
H         -3.72776        0.15533        0.64551
H         -3.05145        0.40271       -0.97725
N         -1.23036       -1.55124       -0.91927
C         -2.34421       -1.37264        0.02674
C         -3.37434       -2.35590       -0.57033
C         -3.06132       -2.30293       -2.06871
O         -1.80590       -1.60931       -2.17838
H         -2.06388       -1.73029        1.02095
C         -4.83651       -2.09473       -0.23914
H         -3.11424       -3.35420       -0.18483
H         -2.96699       -3.30276       -2.51545
H         -3.79671       -1.71538       -2.63641
O         -5.67340       -3.06066       -0.83771
H         -4.97047       -2.06452        0.85728
H         -5.15269       -1.12055       -0.64039
H         -5.44026       -3.92259       -0.47119
O         -2.44766        2.38469        0.69991
S         -2.65722        3.44279       -0.58861
O         -1.38884        4.17279       -0.67397
O         -2.96774        2.61594       -1.76089
O         -3.77705        4.23212       -0.07616
H          3.75685        2.33157        2.17701
H         -1.12292       -0.90717        4.20991
