59
ZTX_ketone_1_solv.log	Energy: -1435169.2213850
C          0.70591       -2.00125        0.76772
N          0.11133       -1.80000        2.06635
C         -0.60837       -0.72193        2.37356
C         -0.12794       -2.65307       -0.36434
H          1.51199       -2.72995        0.89595
N         -1.31244       -0.67796        3.48808
H         -1.39992       -1.50580        4.07043
H          0.23144       -2.52264        2.77084
N         -0.64194        0.30862        1.50405
C         -0.59411        0.80729       -0.77901
C         -2.02412        1.01810       -0.25045
C         -1.83738        1.12333        1.27712
O         -0.23039        0.85724       -1.91746
H         -2.69627        0.70789        1.81737
H         -1.68199        2.15530        1.61242
O          0.36755       -3.59060       -0.95717
C          1.28532       -0.69521        0.22775
C          0.32287        0.48537        0.42447
N          1.23620        1.57085        0.67531
C          2.45447        1.12924        0.98933
N          2.49290       -0.22360        0.91731
H          1.49953       -0.80351       -0.84771
N          3.46010        1.89797        1.33455
H          0.94211        2.54589        0.60218
C          3.67239       -1.02158        1.07959
H          4.41688        1.53453        1.25722
C         -2.90891       -0.17934       -0.63387
O          4.39616       -1.19108       -0.12722
H          4.30755       -0.58101        1.85730
H          3.38317       -2.02774        1.39633
C          5.43194       -0.36069       -0.36096
O          5.76431        0.55242        0.37243
N          6.01274       -0.67114       -1.53647
H          5.84309       -1.57668       -1.96993
O          7.21565       -0.09190       -1.82113
H          7.03092        0.60616       -2.46779
H         -3.90175        0.02971       -0.21394
H         -2.99506       -0.19059       -1.73039
N         -1.23742       -1.99190       -0.84427
C         -2.44805       -1.54952       -0.13689
C         -3.41065       -2.70723       -0.49092
C         -2.93329       -3.12747       -1.88222
O         -1.66883       -2.46900       -2.07210
H         -2.29160       -1.56336        0.94371
C         -4.88823       -2.38398       -0.41782
H         -3.19882       -3.51580        0.22429
H         -2.79879       -4.21504       -1.96782
H         -3.59510       -2.77443       -2.68587
O         -5.18262       -1.96860        0.89884
H         -5.14352       -1.60209       -1.15516
H         -5.46139       -3.28749       -0.69356
H         -6.10463       -1.68890        0.92640
O         -2.62961        2.13516       -0.85797
S         -2.00861        3.66763       -0.58576
O         -2.72733        4.15720        0.59264
O         -0.56817        3.43874       -0.34862
O         -2.32810        4.34204       -1.83747
H          3.31865        2.90349        1.36242
H         -1.74925        0.18476        3.79648
