59
ZTX_ketone_241_solv.log	Energy: -1435168.2565013
C         -1.19153        1.60275       -0.40492
N         -1.21389        1.51182        1.03488
C         -0.51154        0.60628        1.71225
C         -0.10107        2.45309       -1.10156
H         -2.11232        2.11491       -0.70270
N         -0.39405        0.68298        3.02349
H         -0.75790        1.48781        3.52526
H         -1.79981        2.16312        1.55035
N          0.12549       -0.36728        1.02818
C          1.17944       -0.88032       -0.99070
C          2.24546       -0.75267        0.11231
C          1.43769       -0.88700        1.41884
O          1.37137       -1.02299       -2.16279
H          1.86670       -0.27896        2.22462
H          1.36755       -1.92406        1.76621
O         -0.46596        3.29129       -1.90146
C         -1.18783        0.21026       -1.03699
C         -0.21533       -0.75052       -0.33760
N         -0.94480       -1.99483       -0.38945
C         -2.25023       -1.78202       -0.58407
N         -2.46741       -0.48963       -0.91655
H         -0.91900        0.28846       -2.10312
N         -3.18547       -2.69505       -0.49033
H         -0.52943       -2.86399       -0.05535
C         -3.65924        0.01502       -1.54358
H         -4.16506       -2.39214       -0.45346
C          2.94577        0.61369        0.00977
O         -4.47576        0.74785       -0.65017
H         -3.36888        0.72522       -2.32544
H         -4.22462       -0.80804       -1.99813
C         -5.34933        0.05040        0.10030
O         -5.50546       -1.15460        0.03667
N         -5.99085        0.87858        0.95101
H         -5.99563        1.88139        0.77274
O         -7.09799        0.38998        1.58548
H         -6.82654        0.21086        2.49836
H          3.71292        0.61106        0.79603
H          3.46324        0.65004       -0.96038
N          1.21294        2.04260       -1.02196
C          2.05213        1.84535        0.16854
C          2.80451        3.19458        0.18712
C          2.98733        3.47923       -1.30034
O          2.02840        2.64287       -1.97291
H          1.44056        1.79602        1.07213
C          4.08562        3.26179        1.00396
H          2.10006        3.92788        0.60835
H          2.79659        4.53117       -1.55454
H          3.98251        3.18719       -1.66748
O          3.85376        3.08256        2.38438
H          4.83016        2.54287        0.61869
H          4.52037        4.26494        0.88070
H          3.65327        2.15331        2.54922
O          3.26808       -1.70494       -0.05889
S          2.90889       -3.33574        0.09548
O          3.85830       -3.93631       -0.83342
O          3.14258       -3.63384        1.51029
O          1.49028       -3.43168       -0.30568
H         -2.93741       -3.63358       -0.19182
H         -0.00504       -0.08903        3.55533
