59
ZTX_ketone_153_solv.log	Energy: -1435165.6024751
C         -1.22218        1.34765        1.20434
N         -0.52517        1.10977        2.44503
C          0.42275        0.18407        2.57943
C         -0.61035        2.32763        0.17439
H         -2.16783        1.83685        1.45437
N          1.17190        0.14307        3.66465
H          1.10134        0.87805        4.36210
H         -0.76682        1.67918        3.25157
N          0.63700       -0.68582        1.56913
C          0.59290       -0.84078       -0.76503
C          2.05798       -0.79525       -0.29417
C          1.97079       -1.16690        1.20019
O          0.19583       -0.81445       -1.89298
H          2.74190       -0.65667        1.78893
H          2.06148       -2.24563        1.37144
O         -1.31343        3.22144       -0.24960
C         -1.52018        0.03190        0.49072
C         -0.31363       -0.91422        0.48628
N         -0.95466       -2.20204        0.57761
C         -2.21035       -2.09258        1.01266
N         -2.55343       -0.78811        1.14102
H         -1.81036        0.23255       -0.55271
N         -2.98819       -3.11528        1.27428
H         -0.44344       -3.06772        0.39899
C         -3.90842       -0.34567        1.32088
H         -3.96124       -2.99546        1.53510
C          2.63763        0.61461       -0.50162
O         -4.68283       -0.47765        0.14384
H         -4.39677       -0.96247        2.08282
H         -3.90395        0.69325        1.66765
C         -4.71051        0.57866       -0.70013
O         -4.08779        1.60507       -0.53626
N         -5.56893        0.32323       -1.71392
H         -5.84171       -0.63748       -1.91272
O         -5.50844        1.14951       -2.80220
H         -6.28812        1.72230       -2.74675
H          3.67203        0.57477       -0.13413
H          2.67038        0.80130       -1.58523
N          0.58571        1.98983       -0.42708
C          1.89914        1.75847        0.19473
C          2.54897        3.14447       -0.00338
C          1.93443        3.60971       -1.32712
O          0.83602        2.71670       -1.58112
H          1.79273        1.58668        1.26868
C          4.07136        3.18541        0.04293
H          2.17709        3.78514        0.80982
H          1.56316        4.64318       -1.27943
H          2.62744        3.50774       -2.17534
O          4.55970        4.50952        0.04933
H          4.41724        2.71259        0.97465
H          4.49766        2.61298       -0.79938
H          4.42040        4.88709       -0.82744
O          2.86623       -1.64488       -1.07402
S          2.61671       -3.30164       -1.02696
O          3.48970       -3.77835        0.04823
O          1.17652       -3.44385       -0.72875
O          3.01102       -3.69802       -2.37291
H         -2.62128       -4.05894        1.19403
H          1.77928       -0.64885        3.85024
