59
ZTX_ketone_101_solv.log	Energy: -1435168.9566136
C          1.09856       -1.66007       -0.31006
N          1.15366       -1.52666        1.12522
C          0.52416       -0.55602        1.78411
C         -0.06646       -2.44596       -0.95888
H          1.97364       -2.24641       -0.60807
N          0.41990       -0.58810        3.09851
H          0.73082       -1.40285        3.61927
H          1.69402       -2.20626        1.65370
N         -0.05183        0.44181        1.08103
C         -1.10900        0.95990       -0.93537
C         -2.15849        0.94850        0.19152
C         -1.31631        1.06559        1.47738
O         -1.31439        1.07889       -2.10784
H         -1.77083        0.51454        2.30900
H         -1.16658        2.10540        1.78985
O          0.21378       -3.34217       -1.72822
C          1.17908       -0.29048       -0.98442
C          0.28687        0.75574       -0.30280
N          1.09653        1.94552       -0.41323
C          2.37968        1.64078       -0.63084
N          2.50603        0.32236       -0.90653
H          0.88617       -0.37966       -2.04332
N          3.37285        2.49517       -0.60471
H          0.74070        2.85587       -0.12238
C          3.64315       -0.28546       -1.54541
H          4.33219        2.13172       -0.58101
C         -2.96298       -0.36236        0.15230
O          4.44341       -1.02497       -0.64328
H          3.28218       -1.01268       -2.28128
H          4.24369        0.47455       -2.06029
C          5.38894       -0.35035        0.03805
O          5.61880        0.83744       -0.09343
N          6.00904       -1.17616        0.90585
H          5.93794       -2.18497        0.78571
O          7.16425       -0.73050        1.48284
H          6.93417       -0.48927        2.39298
H         -3.69316       -0.29091        0.96989
H         -3.51876       -0.38315       -0.79692
N         -1.34182       -1.91847       -0.88423
C         -2.16280       -1.65559        0.30972
C         -3.02705       -2.93537        0.33966
C         -3.15829       -3.29054       -1.14368
O         -2.20460       -2.45789       -1.82588
H         -1.54224       -1.64740        1.20965
C         -4.35760       -2.84371        1.07258
H         -2.42060       -3.70677        0.83948
H         -2.93352       -4.34733       -1.34609
H         -4.14663       -3.04050       -1.55495
O         -5.03815       -4.07948        1.04819
H         -4.18930       -2.49340        2.10700
H         -5.01822       -2.11632        0.57788
H         -4.49832       -4.72399        1.52230
O         -3.10957        1.97027        0.00599
S         -2.62677        3.57320        0.09387
O         -2.80744        3.93987        1.50055
O         -1.21304        3.54818       -0.33534
O         -3.54702        4.21048       -0.83988
H          3.19417        3.46021       -0.34382
H          0.08930        0.22153        3.61358
