59
ZTX_ketone_127_solv.log	Energy: -1435168.3878202
C          1.09702       -1.66701       -0.29718
N          1.14936       -1.52978        1.13782
C          0.51745       -0.55807        1.79283
C         -0.06922       -2.45159       -0.94516
H          1.97168       -2.25554       -0.59216
N          0.40838       -0.58782        3.10691
H          0.71557       -1.40234        3.63021
H          1.68518       -2.21040        1.66958
N         -0.05488        0.43915        1.08607
C         -1.10582        0.95613       -0.93379
C         -2.15799        0.94975        0.19074
C         -1.31857        1.06684        1.47825
O         -1.30812        1.07460       -2.10685
H         -1.77664        0.51852        2.30973
H         -1.16685        2.10682        1.78929
O          0.20751       -3.35465       -1.70721
C          1.17985       -0.29928       -0.97528
C          0.28811        0.74992       -0.29741
N          1.10007        1.93802       -0.40831
C          2.38248        1.63169       -0.62729
N          2.50755        0.31219       -0.89894
H          0.88750       -0.39101       -2.03411
N          3.37617        2.48558       -0.60579
H          0.74459        2.85012       -0.12247
C          3.64265       -0.29748       -1.53977
H          4.33560        2.12201       -0.58402
C         -2.96629       -0.35867        0.15184
O          4.44775       -1.03193       -0.63785
H          3.27914       -1.02845       -2.27064
H          4.24027        0.46051       -2.06100
C          5.39830       -0.35403        0.03306
O          5.62661        0.83330       -0.10523
N          6.02564       -1.17580        0.89943
H          5.95471       -2.18514        0.78375
O          7.18458       -0.72668        1.46614
H          6.96094       -0.48197        2.37696
H         -3.69763       -0.28455        0.96808
H         -3.52076       -0.37766       -0.79815
N         -1.34135       -1.91290       -0.87939
C         -2.16948       -1.65416        0.31031
C         -3.03685       -2.93274        0.33100
C         -3.16401       -3.27255       -1.15739
O         -2.20027       -2.44451       -1.82904
H         -1.55465       -1.65014        1.21449
C         -4.36466       -2.83541        1.07249
H         -2.43874       -3.71131        0.82686
H         -2.95005       -4.33018       -1.36760
H         -4.14872       -3.00883       -1.57081
O         -4.99105       -4.09479        1.18925
H         -4.18299       -2.47199        2.09540
H         -5.03103       -2.10986        0.57438
H         -5.34231       -4.33925        0.32466
O         -3.10576        1.97387        0.00100
S         -2.61907        3.57564        0.08695
O         -2.80227        3.94556        1.49245
O         -1.20442        3.54643       -0.33890
O         -3.53550        4.21330       -0.85034
H          3.19842        3.45169       -0.34824
H          0.07496        0.22228        3.61941
