59
ZTX_ketone_224_solv.log	Energy: -1435156.5243270
C          1.37013       -1.69708        0.71923
N          0.77901       -1.97404        2.00753
C         -0.12949       -1.18401        2.57790
C          0.65438       -2.19225       -0.56047
H          2.31896       -2.23994        0.67763
N         -0.79914       -1.58446        3.64096
H         -0.72179       -2.54354        3.96637
H          1.05303       -2.82552        2.49001
N         -0.38269        0.02394        2.02989
C         -0.51184        1.11428       -0.04023
C         -1.94503        0.86617        0.47536
C         -1.71219        0.63586        1.98029
O         -0.16431        1.57623       -1.08582
H         -2.46687       -0.02640        2.42006
H         -1.72076        1.59797        2.51014
O          1.29602       -2.84383       -1.35842
C          1.64892       -0.20380        0.55577
C          0.48774        0.66408        1.05967
N          1.19423        1.79730        1.61067
C          2.48149        1.51062        1.83362
N          2.78423        0.28463        1.35053
H          1.81930        0.02536       -0.50740
N          3.31528        2.32558        2.43200
H          0.72076        2.59670        2.02587
C          4.13416       -0.15799        1.12268
H          4.29808        2.10015        2.54596
C         -2.57679       -0.35992       -0.21154
O          4.73998        0.50560        0.03050
H          4.74887        0.06400        2.00120
H          4.13201       -1.24195        0.96595
C          4.61050       -0.06368       -1.19043
O          3.98291       -1.07597       -1.41230
N          5.32343        0.64579       -2.09485
H          5.59351        1.60419       -1.88129
O          5.07776        0.39234       -3.41622
H          5.83894       -0.11412       -3.73729
H         -3.56344       -0.48393        0.25539
H         -2.72851       -0.11011       -1.26978
N         -0.57208       -1.64538       -0.87667
C         -1.81877       -1.67960       -0.09653
C         -2.52949       -2.87857       -0.76688
C         -2.03388       -2.79785       -2.21167
O         -0.94235       -1.86194       -2.19492
H         -1.61667       -1.95077        0.94171
C         -4.03779       -2.91122       -0.63741
H         -2.12276       -3.78508       -0.29443
H         -1.68082       -3.76860       -2.58755
H         -2.78773       -2.38984       -2.89998
O         -4.36354       -2.94335        0.73593
H         -4.48070       -2.03131       -1.13715
H         -4.41732       -3.80627       -1.16262
H         -5.32258       -2.88879        0.81880
O         -2.80763        1.97756        0.38527
S         -3.03927        2.94951       -0.96556
O         -1.94348        3.92172       -0.91127
O         -3.00915        2.05642       -2.13013
O         -4.35544        3.50132       -0.64488
H          2.97676        3.21028        2.79992
H         -1.37623       -0.93747        4.16886
