59
ZTX_ketone_204_solv.log	Energy: -1435159.8655514
C          1.38417        1.31837        0.58214
N          1.50000        1.53842       -0.84010
C          0.83699        0.81868       -1.74337
C          0.26294        2.02706        1.37952
H          2.29004        1.72752        1.04050
N          0.80857        1.18131       -3.01039
H          1.20422        2.07156       -3.29842
H          2.11620        2.27914       -1.16359
N          0.15475       -0.27096       -1.33304
C         -1.05508       -1.16680        0.45723
C         -2.04602       -0.75842       -0.65304
C         -1.13344       -0.68385       -1.88999
O         -1.29321       -1.59869        1.54559
H         -1.49343        0.04553       -2.62482
H         -1.06167       -1.67260       -2.36305
O          0.58171        2.64472        2.37584
C          1.31227       -0.17651        0.89876
C          0.38858       -0.93748       -0.06456
N          1.10233       -2.18722       -0.22776
C          2.39486       -2.04533        0.10394
N          2.58912       -0.86931        0.73603
H          0.95664       -0.31962        1.93158
N          3.33030       -2.93112       -0.12910
H          0.79111       -2.89431       -0.89041
C          3.71940       -0.54956        1.56738
H          4.31081       -2.64542       -0.02322
C         -2.71062        0.59864       -0.35020
O          4.61734        0.34913        0.94617
H          3.35623       -0.02991        2.46094
H          4.23751       -1.46751        1.87125
C          5.55457       -0.17493        0.13328
O          5.68376       -1.36320       -0.09483
N          6.29484        0.81205       -0.41132
H          6.29446        1.73954        0.00941
O          7.44646        0.45522       -1.05296
H          7.26030        0.53165       -2.00116
H         -3.36243        0.79923       -1.21151
H         -3.34570        0.47437        0.53630
N         -1.04635        1.69516        1.11147
C         -1.78279        1.79480       -0.15719
C         -2.51876        3.13728        0.05957
C         -2.76252        3.14514        1.56857
O         -1.92782        2.10202        2.10157
H         -1.09251        1.92456       -0.99340
C         -3.76980        3.34723       -0.76719
H         -1.79942        3.93000       -0.19503
H         -2.49232        4.10438        2.03220
H         -3.79800        2.88796        1.83393
O         -3.41329        3.27359       -2.13112
H         -4.52907        2.58853       -0.50658
H         -4.19871        4.33388       -0.51505
H         -4.22125        3.31986       -2.65457
O         -3.02242       -1.73036       -0.95095
S         -4.01954       -2.51055        0.15429
O         -5.12736       -2.87366       -0.72948
O         -3.22316       -3.64684        0.62720
O         -4.35137       -1.52254        1.18789
H          3.10239       -3.77823       -0.64083
H          0.43858        0.55933       -3.72196
