59
ZTX_ketone_216_solv.log	Energy: -1435165.8218650
C         -1.31326        1.31847        1.25793
N         -0.61871        1.08693        2.50160
C          0.37509        0.20883        2.62450
C         -0.74016        2.35152        0.25726
H         -2.28342        1.75749        1.50870
N          1.11524        0.18029        3.71616
H          1.00702        0.89820        4.42639
H         -0.89326        1.62891        3.31645
N          0.64262       -0.62546        1.59764
C          0.62673       -0.73658       -0.73910
C          2.08251       -0.62813       -0.25366
C          2.00185       -1.03207        1.23233
O          0.23788       -0.70590       -1.86998
H          2.74201       -0.49433        1.83613
H          2.14565       -2.10788        1.38446
O         -1.48454        3.21927       -0.15139
C         -1.53782        0.00674        0.50992
C         -0.28601       -0.87858        0.50152
N         -0.86262       -2.19778        0.56118
C         -2.12727       -2.16028        0.98010
N         -2.54039       -0.87738        1.12325
H         -1.82072        0.21869       -0.53312
N         -2.85283       -3.22670        1.21577
H         -0.30523       -3.03313        0.37655
C         -3.92235       -0.51103        1.26724
H         -3.83543       -3.16113        1.45900
C          2.59085        0.81291       -0.43417
O         -4.65750       -0.68481        0.07029
H         -4.39670       -1.15354        2.01699
H         -3.98393        0.52647        1.61170
C         -4.71026        0.36441       -0.78110
O         -4.13995        1.41936       -0.60736
N         -5.52818        0.06470       -1.81629
H         -5.74939       -0.90892       -2.01653
O         -5.47149        0.88541       -2.90925
H         -6.27517        1.42600       -2.88007
H          3.62695        0.82748       -0.07385
H          2.61221        1.01991       -1.51378
N          0.47578        2.09050       -0.34076
C          1.79636        1.90409        0.28380
C          2.36413        3.33403        0.13922
C          1.75494        3.79818       -1.18434
O          0.69961        2.86381       -1.47108
H          1.69025        1.69985        1.35216
C          3.87296        3.51565        0.28435
H          1.90795        3.91533        0.95475
H          1.34028        4.81427       -1.12014
H          2.45728        3.74161       -2.02755
O          4.65060        2.96040       -0.75231
H          4.07974        4.59391        0.39381
H          4.19093        3.03209        1.22071
H          4.60554        3.54248       -1.51926
O          2.93898       -1.42324       -1.04048
S          2.77041       -3.09004       -1.02439
O          3.65417       -3.54307        0.05244
O          1.33594       -3.30864       -0.74547
O          3.19786       -3.44403       -2.37212
H         -2.43698       -4.14850        1.12131
H          1.76926       -0.57749        3.88441
