59
ZTX_ketone_184_solv.log	Energy: -1435163.8085824
C          0.95417       -1.68350        1.11380
N          0.30133       -1.45090        2.37963
C         -0.57194       -0.46472        2.57399
C          0.24985       -2.55846        0.04705
H          1.85694       -2.26412        1.32565
N         -1.30790       -0.42076        3.66783
H         -1.28915       -1.19329        4.32714
H          0.50892       -2.07741        3.15254
N         -0.72618        0.46615        1.60914
C         -0.67548        0.77802       -0.70516
C         -2.13712        0.81783       -0.22754
C         -2.01795        1.07752        1.28727
O         -0.28452        0.78617       -1.83563
H         -2.82473        0.58973        1.84687
H         -2.02209        2.14578        1.53267
O          0.87896       -3.48256       -0.42829
C          1.35485       -0.36415        0.45501
C          0.23911        0.68570        0.53922
N          0.99289        1.90064        0.72169
C          2.24803        1.65358        1.08942
N          2.48697        0.31541        1.10045
H          1.59791       -0.53759       -0.60563
N          3.11915        2.58363        1.39456
H          0.55431        2.81893        0.63845
C          3.80912       -0.21905        0.98760
H          4.08025        2.36123        1.63166
C         -2.82515       -0.52506       -0.53080
O          4.25146       -0.00869       -0.34743
H          4.48537        0.27098        1.70035
H          3.79265       -1.29166        1.21640
C          5.53385       -0.32097       -0.60090
O          6.29485       -0.79402        0.21535
N          5.84572        0.02223       -1.87751
H          5.09346        0.13210       -2.55517
O          6.99955       -0.51019       -2.38916
H          7.63593        0.21926       -2.42279
H         -3.86261       -0.42664       -0.18705
H         -2.84690       -0.64599       -1.62320
N         -0.92022       -2.10441       -0.52448
C         -2.20376       -1.76510        0.11205
C         -2.97571       -3.08764       -0.11458
C         -2.39978       -3.59168       -1.44113
O         -1.24658       -2.77091       -1.69585
H         -2.07603       -1.64501        1.19043
C         -4.49238       -3.04082       -0.04389
H         -2.64807       -3.76079        0.69076
H         -2.09683       -4.64742       -1.38909
H         -3.08555       -3.44206       -2.28438
O         -5.02800       -2.40044       -1.18064
H         -4.86266       -4.07873        0.03093
H         -4.78628       -2.52303        0.88728
H         -5.98685       -2.38088       -1.08664
O         -2.87671        1.78113       -0.94073
S         -2.48243        3.40336       -0.79381
O         -3.31618        3.88964        0.30795
O         -1.03696        3.39895       -0.48553
O         -2.83150        3.91417       -2.11340
H          2.83727        3.55960        1.38433
H         -1.85206        0.40438        3.89879
