59
ZTX_ketone_154_solv.log	Energy: -1435167.4963175
C         -1.41657        1.28017       -0.53262
N         -1.50912        1.22735        0.90589
C         -0.76992        0.40187        1.64416
C         -0.36891        2.20093       -1.19918
H         -2.36353        1.70245       -0.87979
N         -0.74562        0.50816        2.95842
H         -1.20339        1.29082        3.41642
H         -2.26620        1.74240        1.34934
N         -0.00212       -0.51558        1.02028
C          1.22149       -0.92655       -0.92536
C          2.19756       -0.69662        0.24430
C          1.32363       -0.91134        1.49665
O          1.50058       -1.05283       -2.08159
H          1.64075       -0.26846        2.32652
H          1.32708       -1.95154        1.84191
O         -0.75677        2.95874       -2.06646
C         -1.25824       -0.11983       -1.12062
C         -0.21605       -0.94909       -0.35689
N         -0.78235       -2.27342       -0.42825
C         -2.08816       -2.22207       -0.70054
N         -2.45619       -0.96101       -1.01143
H         -0.95706       -0.04679       -2.17781
N         -2.89145       -3.25875       -0.67672
H         -0.25660       -3.09418       -0.12552
C         -3.73426       -0.63255       -1.59617
H         -3.88223       -3.16977       -0.87633
C          2.76539        0.73163        0.18810
O         -4.76972       -0.68751       -0.63746
H         -3.66630        0.35812       -2.05952
H         -4.01009       -1.36788       -2.36221
C         -4.95582        0.38732        0.15961
O         -4.41149        1.46063        0.01261
N         -5.81040        0.06491        1.15645
H         -6.40282       -0.75857        1.06632
O         -6.35069        1.09671        1.87264
H         -5.89578        1.09472        2.72820
H          3.44505        0.81897        1.04673
H          3.36659        0.81526       -0.72934
N          0.97118        1.93983       -1.00890
C          1.74421        1.86855        0.24072
C          2.36901        3.27942        0.25879
C          2.55233        3.58335       -1.23009
O          1.78813        2.58247       -1.92632
H          1.07538        1.78062        1.10013
C          3.63243        3.45599        1.08828
H          1.60007        3.95248        0.66934
H          2.18490        4.58176       -1.50608
H          3.59504        3.47199       -1.56027
O          4.08895        4.79069        1.04446
H          3.44408        3.12498        2.12564
H          4.44734        2.83730        0.68425
H          3.40985        5.35061        1.44103
O          3.31716       -1.54431        0.14178
S          3.11676       -3.20244        0.28787
O          3.27944       -3.47185        1.71811
O          1.74707       -3.44718       -0.20985
O          4.18427       -3.70450       -0.56795
H         -2.52836       -4.17212       -0.42090
H         -0.31361       -0.20984        3.53094
