59
ZTX_ketone_263_solv.log	Energy: -1435167.9293555
C         -1.54635        1.10211       -0.59597
N         -1.60309        1.10224        0.84591
C         -0.76982        0.38877        1.60099
C         -0.63042        2.10635       -1.33286
H         -2.54384        1.39511       -0.93592
N         -0.73610        0.55006        2.90937
H         -1.27103        1.29476        3.34643
H         -2.39407        1.56589        1.28743
N          0.08273       -0.46611        0.99889
C          1.31240       -0.79924       -0.95889
C          2.27409       -0.40815        0.17855
C          1.45594       -0.67977        1.45754
O          1.58095       -0.92799       -2.11746
H          1.70661        0.02700        2.25730
H          1.59292       -1.69863        1.83763
O         -1.12156        2.75194       -2.23915
C         -1.24308       -0.29523       -1.13013
C         -0.10183       -0.97126       -0.35815
N         -0.51467       -2.35277       -0.37388
C         -1.82311       -2.45970       -0.61920
N         -2.33650       -1.26151       -0.96890
H         -0.96730       -0.23162       -2.19466
N         -2.50130       -3.57944       -0.53789
H          0.10412       -3.09876       -0.05524
C         -3.67090       -1.08502       -1.48502
H         -3.49643       -3.61593       -0.73452
C          2.66331        1.07503        0.05975
O         -4.63519       -1.12200       -0.45224
H         -3.71580       -0.14177       -2.04231
H         -3.93274       -1.90835       -2.16099
C         -4.95890        0.03335        0.16794
O         -4.56968        1.13257       -0.16595
N         -5.81915       -0.22427        1.17774
H         -5.89564       -1.16681        1.55474
O         -6.06153        0.78586        2.06572
H         -6.93826        1.13460        1.84388
H          3.33680        1.27665        0.90283
H          3.23542        1.19609       -0.87204
N          0.72903        2.03846       -1.14356
C          1.51539        2.08414        0.09578
C          1.96964        3.56072        0.07309
C          2.11500        3.84150       -1.42257
O          1.45532        2.74873       -2.08693
H          0.87041        1.94514        0.96577
C          3.20396        3.88884        0.89714
H          1.12513        4.14726        0.46739
H          1.64520        4.78952       -1.72015
H          3.16215        3.82944       -1.75768
O          3.06364        3.49387        2.24450
H          4.08295        3.36058        0.49860
H          3.41262        4.96992        0.81130
H          2.32760        3.98735        2.62700
O          3.48687       -1.11714        0.08140
S          3.49093       -2.78125        0.27958
O          2.14924       -3.20278       -0.17394
O          4.59111       -3.17939       -0.58964
O          3.71777       -2.98479        1.71199
H         -2.03189       -4.43214       -0.24810
H         -0.22388       -0.09763        3.49998
