59
ZTX_ketone_77_solv.log	Energy: -1435167.7714679
C         -1.25962        1.39885        1.15404
N         -0.51072        1.25662        2.37945
C          0.49633        0.39603        2.51767
C         -0.74550        2.36478        0.05781
H         -2.22343        1.84490        1.41588
N          1.28272        0.44486        3.57547
H          1.19478        1.20552        4.24287
H         -0.76042        1.84500        3.16969
N          0.72901       -0.50104        1.53647
C          0.60991       -0.77999       -0.78225
C          2.08471       -0.62646       -0.37210
C          2.07590       -0.91998        1.14182
O          0.17058       -0.82816       -1.89380
H          2.83461       -0.33107        1.67060
H          2.24109       -1.97973        1.36709
O         -1.52254        3.18778       -0.38175
C         -1.50431        0.03837        0.50612
C         -0.24564       -0.83879        0.50529
N         -0.80657       -2.15405        0.68435
C         -2.05810       -2.09618        1.13952
N         -2.47408       -0.80953        1.21620
H         -1.83111        0.17968       -0.53586
N         -2.77108       -3.14870        1.46132
H         -0.25547       -2.99744        0.51828
C         -3.84524       -0.43772        1.42956
H         -3.74936       -3.07227        1.71887
C          2.56595        0.80275       -0.67167
O         -4.66441       -0.70231        0.30601
H         -4.26038       -1.02646        2.25471
H         -3.89171        0.62203        1.70204
C         -4.75121        0.26252       -0.63795
O         -4.19549        1.33756       -0.57487
N         -5.51035       -0.18119       -1.66582
H         -6.13765       -0.97077       -1.52493
O         -5.93986        0.74953       -2.57090
H         -5.39832        0.62043       -3.36392
H          3.61280        0.84593       -0.34349
H          2.54157        0.94002       -1.76281
N          0.44971        2.08247       -0.56942
C          1.79367        1.93352        0.00865
C          2.36832        3.34435       -0.26079
C          1.66396        3.75323       -1.55607
O          0.62316        2.78100       -1.75405
H          1.73498        1.79895        1.09083
C          3.87841        3.44036       -0.32381
H          2.01589        3.98473        0.56131
H          1.22304        4.75816       -1.49279
H          2.31982        3.69478       -2.43625
O          4.39942        2.99197        0.90927
H          4.26225        2.83860       -1.16681
H          4.15828        4.49071       -0.52222
H          5.36015        2.96226        0.83667
O          2.91510       -1.46751       -1.13806
S          2.76387       -3.13124       -0.99836
O          3.69456       -3.50271        0.06994
O          1.34391       -3.33802       -0.64494
O          3.13889       -3.57449       -2.33507
H         -2.35329       -4.07322        1.41204
H          1.94782       -0.29787        3.76636
