59
ZTX_ketone_50_solv.log	Energy: -1435165.7149813
C         -1.22247        1.34977        1.20034
N         -0.52807        1.11070        2.44236
C          0.41887        0.18420        2.57831
C         -0.60704        2.32961        0.17246
H         -2.16801        1.83981        1.44871
N          1.16611        0.14252        3.66483
H          1.09491        0.87746        4.36225
H         -0.77065        1.68019        3.24857
N          0.63404       -0.68592        1.56840
C          0.59342       -0.84080       -0.76581
C          2.05790       -0.79690       -0.29281
C          1.96804       -1.16813        1.20152
O          0.19807       -0.81419       -1.89439
H          2.73864       -0.65836        1.79133
H          2.05769       -2.24688        1.37318
O         -1.30643        3.22658       -0.25068
C         -1.52038        0.03458        0.48587
C         -0.31509       -0.91321        0.48409
N         -0.95804       -2.20018        0.57412
C         -2.21442       -2.08911        1.00709
N         -2.55619       -0.78439        1.13396
H         -1.80698        0.23556       -0.55832
N         -2.99345       -3.11101        1.26848
H         -0.44796       -3.06649        0.39526
C         -3.90857       -0.33848        1.32553
H         -3.96755       -2.99060        1.52502
C          2.63962        0.61219       -0.49979
O         -4.69736       -0.46869        0.15790
H         -4.39273       -0.95349        2.09146
H         -3.89834        0.70033        1.67260
C         -4.68282        0.56546       -0.71353
O         -4.05340        1.58868       -0.55392
N         -5.43500        0.25576       -1.79393
H         -6.12383       -0.49144       -1.73276
O         -5.75721        1.27817       -2.64289
H         -5.18457        1.17300       -3.41756
H          3.67340        0.57135       -0.13067
H          2.67424        0.79858       -1.58340
N          0.58855        1.98834       -0.42860
C          1.90109        1.75680        0.19515
C          2.55174        3.14247       -0.00258
C          1.93896        3.60769       -1.32719
O          0.84096        2.71456       -1.58262
H          1.79312        1.58535        1.26903
C          4.07409        3.18279        0.04539
H          2.17923        3.78354        0.81002
H          1.56754        4.64113       -1.27996
H          2.63308        3.50576       -2.17450
O          4.56295        4.50671        0.05140
H          4.41877        2.71046        0.97780
H          4.50107        2.60962       -0.79607
H          4.42471        4.88375       -0.82577
O          2.86620       -1.64768       -1.07137
S          2.61406       -3.30403       -1.02503
O          3.48472       -3.78238        0.05129
O          1.17320       -3.44404       -0.72899
O          3.00964       -3.70068       -2.37054
H         -2.62694       -4.05494        1.18969
H          1.77240       -0.64998        3.85151
