59
ZTX_ketone_255_solv.log	Energy: -1435168.3184679
C         -1.47055        1.33110       -0.82095
N         -1.63022        1.32603        0.61236
C         -0.95458        0.48887        1.39853
C         -0.39263        2.23037       -1.47030
H         -2.39032        1.75159       -1.23752
N         -1.03845        0.59004        2.71135
H         -1.55606        1.35722        3.13036
H         -2.47822        1.76261        0.99665
N         -0.13169       -0.42201        0.83617
C          1.19537       -0.85742       -1.03396
C          2.10527       -0.59636        0.18352
C          1.16862       -0.79471        1.39349
O          1.53869       -0.99670       -2.17130
H          1.43190       -0.13079        2.22600
H          1.16489       -1.82784        1.75975
O         -0.73748        2.93068       -2.40286
C         -1.29305       -0.09089       -1.35381
C         -0.26700       -0.88623       -0.54108
N         -0.81892       -2.21869       -0.61181
C         -2.14033       -2.16763       -0.81967
N         -2.49347       -0.92593       -1.21129
H         -0.98617       -0.06032       -2.41100
N         -2.94342       -3.19731       -0.69472
H         -0.30337       -3.02129       -0.24865
C         -3.81380       -0.44858       -1.50507
H         -3.95129       -3.07146       -0.71803
C          2.66179        0.83555        0.12882
O         -4.30115        0.36572       -0.45128
H         -3.77849        0.20437       -2.38413
H         -4.49035       -1.28656       -1.70795
C         -4.68759       -0.26244        0.67123
O         -4.90138       -1.45404        0.75254
N         -4.87003        0.60313        1.70229
H         -4.95725        0.19503        2.63090
O         -4.24087        1.82195        1.68935
H         -4.90247        2.48133        1.42894
H          3.30428        0.93750        1.01360
H          3.30402        0.90944       -0.76120
N          0.93215        2.01695       -1.17566
C          1.62745        1.96235        0.11684
C          2.22995        3.38424        0.15352
C          2.55442        3.63345       -1.31774
O          1.79855        2.65381       -2.05271
H          0.91290        1.87841        0.93912
C          3.40029        3.61775        1.09757
H          1.41223        4.05374        0.46005
H          2.26527        4.64142       -1.64664
H          3.61503        3.46072       -1.55290
O          3.04001        3.47011        2.45392
H          4.25141        2.96750        0.82920
H          3.74213        4.65570        0.96851
H          2.95889        2.53012        2.65473
O          3.23661       -1.43415        0.15695
S          3.04263       -3.09016        0.33039
O          3.12492       -3.32581        1.77371
O          1.70547       -3.35899       -0.23822
O          4.16191       -3.60127       -0.45053
H         -2.57605       -4.06401       -0.31239
H         -0.66038       -0.13441        3.31319
