59
ZTX_ketone_244_solv.log	Energy: -1435167.9275985
C         -1.54631        1.10190       -0.59604
N         -1.60297        1.10233        0.84585
C         -0.76972        0.38901        1.60108
C         -0.63048        2.10598       -1.33327
H         -2.54386        1.39477       -0.93594
N         -0.73597        0.55064        2.90942
H         -1.27088        1.29546        3.34631
H         -2.39374        1.56634        1.28736
N          0.08276       -0.46609        0.99919
C          1.31244       -0.79944       -0.95859
C          2.27412       -0.40802        0.17874
C          1.45604       -0.67948        1.45780
O          1.58092       -0.92825       -2.11718
H          1.70664        0.02748        2.25741
H          1.59317       -1.69825        1.83810
O         -1.12169        2.75111       -2.23987
C         -1.24302       -0.29552       -1.12991
C         -0.10178       -0.97143       -0.35778
N         -0.51463       -2.35293       -0.37334
C         -1.82302       -2.45994       -0.61885
N         -2.33643       -1.26179       -0.96862
H         -0.96717       -0.23208       -2.19444
N         -2.50115       -3.57973       -0.53759
H          0.10418       -3.09889       -0.05473
C         -3.67078       -1.08542       -1.48495
H         -3.49626       -3.61635       -0.73431
C          2.66320        1.07517        0.05965
O         -4.63514       -1.12217       -0.45222
H         -3.71563       -0.14233       -2.04251
H         -3.93256       -1.90891       -2.16073
C         -4.95892        0.03326        0.16774
O         -4.56977        1.13244       -0.16630
N         -5.81934       -0.22426        1.17749
H         -5.89466       -1.16662        1.55520
O         -6.06102        0.78599        2.06560
H         -6.93804        1.13449        1.84457
H          3.33671        1.27700        0.90267
H          3.23528        1.19613       -0.87218
N          0.72893        2.03845       -1.14381
C          1.51520        2.08422        0.09556
C          1.96933        3.56082        0.07284
C          2.11505        3.84142       -1.42281
O          1.45514        2.74880       -2.08719
H          0.87016        1.94525        0.96551
C          3.20335        3.88919        0.89723
H          1.12464        4.14731        0.46683
H          1.64560        4.78955       -1.72056
H          3.16226        3.82901       -1.75771
O          3.06267        3.49428        2.24457
H          4.08256        3.36104        0.49899
H          3.41188        4.97029        0.81139
H          2.32641        3.98763        2.62679
O          3.48699       -1.11688        0.08188
S          3.49112       -2.78105        0.27948
O          2.14924       -3.20245       -0.17359
O          4.59091       -3.17900       -0.59031
O          3.71855       -2.98501        1.71174
H         -2.03169       -4.43237       -0.24771
H         -0.22382       -0.09696        3.50019
