59
ZTX_ketone_312_solv.log	Energy: -1435165.1637456
C          1.07319       -1.57257        1.09169
N          0.43433       -1.31556        2.35979
C         -0.41743       -0.30957        2.55181
C          0.33796       -2.43980        0.04011
H          1.96799       -2.16804        1.29585
N         -1.14140       -0.24228        3.65280
H         -1.12882       -1.00911        4.31898
H          0.63740       -1.93744        3.13755
N         -0.56271        0.61761        1.58146
C         -0.54276        0.87917       -0.74199
C         -1.99629        0.96424       -0.24181
C         -1.84598        1.25000        1.26668
O         -0.17049        0.86392       -1.87860
H         -2.65398        0.79133        1.84861
H         -1.82234        2.32269        1.49071
O          0.92942       -3.38917       -0.43030
C          1.49033       -0.26546        0.42211
C          0.38792        0.79914        0.49044
N          1.15847        2.00983        0.62405
C          2.40997        1.75445        1.00454
N          2.61828        0.41815        1.07222
H          1.73148       -0.45074       -0.63644
N          3.29908        2.68106        1.27115
H          0.73826        2.92952        0.48134
C          3.92056       -0.16412        1.23063
H          4.27004        2.45680        1.46384
C         -2.72097       -0.36655       -0.50520
O          4.70231       -0.07960        0.05267
H          4.47134        0.38717        2.00034
H          3.81502       -1.20476        1.55492
C          4.57214       -1.07877       -0.83904
O          3.82456       -2.02784       -0.70132
N          5.33446       -0.88737       -1.93904
H          5.47099       -1.68583       -2.55559
O          6.35811        0.02160       -1.92421
H          6.04820        0.78098       -2.44036
H         -3.74166       -0.23852       -0.12001
H         -2.78441       -0.49766       -1.59563
N         -0.82326       -1.95009       -0.52647
C         -2.09784       -1.61156        0.12708
C         -2.89395       -2.91269       -0.11680
C         -2.33163       -3.40010       -1.45686
O         -1.16399       -2.59813       -1.70355
H         -1.95771       -1.49842        1.20509
C         -4.41229       -2.78874       -0.07261
H         -2.59769       -3.61706        0.67425
H         -2.04955       -4.46234       -1.43346
H         -3.01889       -3.22167       -2.29698
O         -5.04089       -4.05152       -0.11744
H         -4.70918       -2.31691        0.87638
H         -4.76940       -2.14183       -0.89293
H         -4.95330       -4.40124       -1.01228
O         -2.72450        1.93006       -0.96317
S         -2.30258        3.54791       -0.84707
O         -3.09749        4.06090        0.27106
O         -0.84924        3.52608       -0.57994
O         -2.68094        4.04605       -2.16328
H          3.02889        3.65955        1.23280
H         -1.66474        0.59608        3.88425
