59
ZTX_ketone_297_solv.log	Energy: -1435159.0879855
C          1.05417       -2.01166        0.18634
N          0.58947       -2.30563        1.52092
C         -0.10823       -1.43999        2.25483
C          0.12009       -2.26945       -1.01997
H          1.88406       -2.69385       -0.01982
N         -0.70084       -1.82343        3.36846
H         -0.72040       -2.80534        3.62830
H          0.78061       -3.22610        1.90710
N         -0.23488       -0.16962        1.81814
C         -0.42896        1.11234       -0.13069
C         -1.81515        1.02427        0.53919
C         -1.44867        0.63323        1.98384
O         -0.13242        1.68588       -1.13671
H         -2.24119        0.05128        2.46810
H         -1.24560        1.53467        2.57776
O          0.55837       -2.91796       -1.94803
C          1.55647       -0.57133        0.08763
C          0.60931        0.41618        0.78987
N          1.54365        1.37685        1.32777
C          2.78621        0.88417        1.37289
N          2.83013       -0.32763        0.77465
H          1.65418       -0.28517       -0.97157
N          3.80652        1.49230        1.92738
H          1.25418        2.21243        1.83042
C          4.03959       -1.03494        0.46441
H          4.76169        1.21079        1.67819
C         -2.72026       -0.02923       -0.12281
O          4.64262       -0.59165       -0.73865
H          4.73928       -0.94682        1.30365
H          3.80566       -2.09276        0.31546
C          5.66987        0.27805       -0.64273
O          6.08355        0.74431        0.40332
N          6.13515        0.57586       -1.87038
H          5.89901       -0.00876       -2.66977
O          7.31255        1.26036       -1.95653
H          7.07659        2.17965       -2.15461
H         -3.65193       -0.04250        0.45533
H         -2.95651        0.30216       -1.14270
N         -1.03862       -1.52996       -1.12443
C         -2.16758       -1.44937       -0.18522
C         -3.13753       -2.46586       -0.83013
C         -2.82046       -2.33399       -2.32055
O         -1.60110       -1.57341       -2.39126
H         -1.88620       -1.83028        0.79858
C         -4.60762       -2.28476       -0.48610
H         -2.82090       -3.46128       -0.48137
H         -2.67420       -3.30896       -2.80657
H         -3.58101       -1.76039       -2.86951
O         -4.83274       -2.30428        0.90655
H         -4.97178       -1.31447       -0.85590
H         -5.19283       -3.06658       -1.00185
H         -4.56149       -3.16829        1.24014
O         -2.38363        2.31477        0.59831
S         -3.49121        2.92875       -0.50404
O         -2.94241        2.63743       -1.83450
O         -4.75045        2.23568       -0.20675
O         -3.46209        4.33759       -0.11625
H          3.66372        2.40618        2.34755
H         -1.09520       -1.14256        4.00935
