59
ZTX_ketone_203_solv.log	Energy: -1435166.0366740
C         -1.50124        1.15569       -0.49319
N         -1.57592        1.09088        0.94677
C         -0.78436        0.30261        1.67230
C         -0.51520        2.13722       -1.16728
H         -2.47538        1.52156       -0.83151
N         -0.75576        0.39436        2.98745
H         -1.25620        1.14149        3.45996
H         -2.33981        1.58127        1.40637
N          0.03417       -0.55891        1.03417
C          1.26498       -0.88360       -0.92294
C          2.23468       -0.59938        0.24082
C          1.38609       -0.87069        1.49905
O          1.54308       -0.99180       -2.08123
H          1.66735       -0.21127        2.32845
H          1.45813       -1.90940        1.84140
O         -0.95414        2.87918       -2.02310
C         -1.26354       -0.22963       -1.09063
C         -0.16397       -0.99686       -0.34348
N         -0.64790       -2.35294       -0.42012
C         -1.95858       -2.38173       -0.67273
N         -2.40634       -1.14551       -0.98019
H         -0.97784       -0.12984       -2.14979
N         -2.69324       -3.46791       -0.63311
H         -0.07229       -3.14112       -0.12160
C         -3.71860       -0.87744       -1.51488
H         -3.68767       -3.44333       -0.83338
C          2.71699        0.85954        0.18603
O         -4.70261       -0.87860       -0.50059
H         -3.69423        0.08016       -2.04762
H         -4.01541       -1.66602       -2.21725
C         -5.00195        0.29055        0.10690
O         -4.55697        1.37265       -0.21284
N         -5.90853        0.06955        1.08385
H         -6.04077       -0.86884        1.45545
O         -6.14510        1.08964        1.96154
H         -6.99686        1.47391        1.70394
H          3.39510        0.98546        1.04109
H          3.30715        0.97905       -0.73461
N          0.84041        1.94159       -0.99900
C          1.63087        1.93498        0.24186
C          2.17799        3.38021        0.23797
C          2.29404        3.68814       -1.25974
O          1.60864        2.61873       -1.93269
H          0.97727        1.81949        1.11041
C          3.45702        3.61568        1.03316
H          1.39539        4.01678        0.67582
H          1.82956        4.64754       -1.52872
H          3.33318        3.67016       -1.61954
O          3.77392        4.98855        1.11793
H          3.31395        3.25550        2.06339
H          4.29432        3.04618        0.59413
H          4.11444        5.27406        0.26166
O          3.40181       -1.37901        0.12584
S          3.30340       -3.04554        0.27615
O          3.49134       -3.30208        1.70575
O          1.94822       -3.37476       -0.21236
O          4.39433       -3.48311       -0.58557
H         -2.26765       -4.35533       -0.38296
H         -0.27569       -0.30351        3.54694
