59
ZTX_ketone_25_solv.log	Energy: -1435167.0930485
C          0.60208       -1.98058        0.88108
N          0.06133       -1.69128        2.18705
C         -0.56754       -0.55236        2.47253
C         -0.30935       -2.60707       -0.20287
H          1.36139       -2.75684        1.01457
N         -1.22981       -0.41212        3.60427
H         -1.36147       -1.20597        4.22414
H          0.15805       -2.39313        2.91544
N         -0.55396        0.44424        1.56380
C         -0.54151        0.85774       -0.73523
C         -1.93582        1.19039       -0.17226
C         -1.68940        1.34172        1.34212
O         -0.21233        0.84278       -1.88504
H         -2.55770        1.01745        1.92745
H         -1.44118        2.37059        1.62746
O          0.09645       -3.59894       -0.77431
C          1.25555       -0.74055        0.27397
C          0.38805        0.51331        0.45255
N          1.38548        1.53641        0.63907
C          2.57656        1.01634        0.93910
N          2.51389       -0.33760        0.91313
H          1.42897       -0.90466       -0.80204
N          3.64450        1.71911        1.23282
H          1.15834        2.52757        0.54589
C          3.64027       -1.21546        1.03272
H          4.57076        1.28410        1.15579
C         -2.91807        0.04810       -0.48290
O          4.30093       -1.43143       -0.20279
H          4.33517       -0.82256        1.78418
H          3.29007       -2.19901        1.35947
C          5.38326       -0.67657       -0.47839
O          5.82230        0.19424        0.25042
N          5.87662       -1.00621       -1.68785
H          5.60992       -1.88281       -2.13190
O          7.10441       -0.51580       -2.02756
H          6.94111        0.21164       -2.64707
H         -3.87990        0.34764       -0.04505
H         -3.04148        0.01155       -1.57537
N         -1.37442       -1.87330       -0.68217
C         -2.54233       -1.34107        0.03649
C         -3.58629       -2.43284       -0.28495
C         -3.17236       -2.87917       -1.68979
O         -1.85380       -2.34306       -1.89576
H         -2.36867       -1.35114        1.11570
C         -5.04821       -2.02471       -0.14896
H         -3.40665       -3.25720        0.42090
H         -3.14293       -3.97295       -1.79392
H         -3.81401       -2.45328       -2.47546
O         -5.91572       -3.13101       -0.27472
H         -5.21176       -1.60151        0.85383
H         -5.30043       -1.24259       -0.88590
H         -5.95066       -3.38491       -1.20472
O         -2.47881        2.32587       -0.80430
S         -1.73859        3.81690       -0.60828
O         -2.05083        4.46955       -1.87316
O         -0.31157        3.48959       -0.40787
O         -2.37898        4.39861        0.57368
H          3.57742        2.73258        1.22903
H         -1.58831        0.49365        3.88922
