59
ZTX_ketone_139_solv.log	Energy: -1435168.3290790
C         -1.47026        1.33222       -0.81992
N         -1.63034        1.32655        0.61333
C         -0.95488        0.48900        1.39924
C         -0.39168        2.23121       -1.46849
H         -2.38976        1.75325       -1.23657
N         -1.03900        0.58967        2.71208
H         -1.55646        1.35683        3.13131
H         -2.47855        1.76288        0.99757
N         -0.13201       -0.42175        0.83668
C          1.19531       -0.85725       -1.03329
C          2.10508       -0.59699        0.18456
C          1.16803       -0.79495        1.39424
O          1.53886       -0.99642       -2.17055
H          1.43134       -0.13108        2.22678
H          1.16394       -1.82811        1.76051
O         -0.73585        2.93331       -2.39987
C         -1.29295       -0.08957       -1.35336
C         -0.26725       -0.88555       -0.54071
N         -0.81968       -2.21777       -0.61189
C         -2.14097       -2.16629       -0.82025
N         -2.49365       -0.92436       -1.21155
H         -0.98582       -0.05861       -2.41047
N         -2.94441       -3.19580       -0.69598
H         -0.30435       -3.02070       -0.24914
C         -3.81373       -0.44665       -1.50585
H         -3.95225       -3.06957       -0.71942
C          2.66259        0.83453        0.13036
O         -4.30154        0.36720       -0.45191
H         -3.77779        0.20677       -2.38453
H         -4.49034       -1.28438       -1.70957
C         -4.68841       -0.26149        0.67014
O         -4.90250       -1.45307        0.75076
N         -4.87085        0.60354        1.70170
H         -4.95810        0.19484        2.63005
O         -4.24125        1.82215        1.68958
H         -4.90268        2.48199        1.42988
H          3.30437        0.93610        1.01571
H          3.30558        0.90804       -0.75915
N          0.93306        2.01514       -1.17477
C          1.62879        1.96178        0.11761
C          2.23199        3.38345        0.15237
C          2.55570        3.63095       -1.31940
O          1.79984        2.65010       -2.05275
H          0.91453        1.87885        0.94031
C          3.40319        3.61734        1.09526
H          1.41489        4.05375        0.45877
H          2.26605        4.63843       -1.64937
H          3.61625        3.45829       -1.55489
O          3.04374        3.47221        2.45209
H          4.25348        2.96582        0.82732
H          3.74593        4.65476        0.96430
H          2.96177        2.53263        2.65437
O          3.23589       -1.43552        0.15849
S          3.04107       -3.09160        0.33013
O          3.12372       -3.32877        1.77317
O          1.70359       -3.35921       -0.23830
O          4.15979       -3.60255       -0.45171
H         -2.57743       -4.06273       -0.31383
H         -0.66108       -0.13503        3.31371
