59
ZTX_ketone_75_solv.log	Energy: -1435168.2100844
C          0.85930       -1.88071        0.81364
N          0.25899       -1.67439        2.10908
C         -0.51094       -0.62429        2.39012
C          0.06124       -2.61024       -0.29711
H          1.70487       -2.56012        0.95776
N         -1.20653       -0.57795        3.50993
H         -1.24371       -1.38735        4.12273
H          0.41929       -2.36883        2.83390
N         -0.60606        0.37519        1.48898
C         -0.60750        0.79183       -0.81109
C         -2.04257        0.94062       -0.27394
C         -1.84929        1.10976        1.24705
O         -0.25837        0.82095       -1.95473
H         -2.67619        0.66021        1.80964
H         -1.75391        2.15911        1.54828
O          0.61796       -3.52171       -0.87713
C          1.36575       -0.56039        0.23622
C          0.33699        0.56821        0.39316
N          1.18751        1.71386        0.59420
C          2.42498        1.35299        0.93598
N          2.53829        0.00244        0.91774
H          1.59343       -0.68976       -0.83423
N          3.38434        2.18724        1.25813
H          0.83532        2.66684        0.49307
C          3.76001       -0.71792        1.11913
H          4.36087        1.87381        1.21065
C         -2.86185       -0.31777       -0.60430
O          4.50545       -0.88050       -0.07705
H          4.35851       -0.21616        1.88849
H          3.52754       -1.72949        1.46385
C          5.50476       -0.01723       -0.31273
O          5.78540        0.92837        0.40816
N          6.20825       -0.32793       -1.41868
H          6.84514        0.37294       -1.79170
O          5.72598       -1.23445       -2.32036
H          6.22190       -2.05362       -2.16993
H         -3.86057       -0.14848       -0.18100
H         -2.95875       -0.37382       -1.69863
N         -1.09704       -2.04309       -0.77598
C         -2.31801       -1.64061       -0.06462
C         -3.21761       -2.86032       -0.36198
C         -2.76079       -3.27606       -1.75994
O         -1.51632       -2.58758       -1.98033
H         -2.14314       -1.60598        1.01270
C         -4.71412       -2.62916       -0.22973
H         -2.92432       -3.64067        0.35761
H         -2.60056       -4.35994       -1.84580
H         -3.45065       -2.94314       -2.54887
O         -5.06224       -2.13076        1.04374
H         -5.05572       -1.88901       -0.96847
H         -5.24155       -3.57330       -0.45347
H         -4.81179       -2.79106        1.70181
O         -2.71583        1.99941       -0.91329
S         -2.18381        3.57331       -0.69786
O         -2.91604        4.05826        0.47421
O         -0.72950        3.43763       -0.47361
O         -2.55809        4.18621       -1.96582
H          3.18796        3.18391        1.24684
H         -1.67644        0.27454        3.79728
