59
ZTX_ketone_226_solv.log	Energy: -1435164.5151204
C         -1.06919        1.66970        0.97692
N         -0.36266        1.55342        2.22993
C          0.55076        0.61216        2.45914
C         -0.44362        2.49137       -0.17708
H         -1.99104        2.22376        1.17938
N          1.31850        0.66130        3.52993
H          1.29219        1.47112        4.14253
H         -0.57020        2.22125        2.96773
N          0.71668       -0.37341        1.55201
C          0.61864       -0.81957       -0.73939
C          2.09348       -0.77203       -0.30166
C          2.02604       -0.94454        1.22943
O          0.19943       -0.91028       -1.85591
H          2.82365       -0.38584        1.73319
H          2.08788       -1.99381        1.53975
O         -1.14050        3.33083       -0.71203
C         -1.43094        0.29185        0.42483
C         -0.26460       -0.69764        0.52457
N         -0.95456       -1.93412        0.79357
C         -2.20302       -1.72300        1.20530
N         -2.49717       -0.39681        1.16601
H         -1.72975        0.38427       -0.63188
N         -3.01606       -2.67366        1.59506
H         -0.47674       -2.83523        0.74019
C         -3.83831        0.09641        1.11715
H         -3.97752       -2.48292        1.85682
C          2.71816        0.57756       -0.69355
O         -4.32830       -0.11585       -0.20087
H         -4.46519       -0.42526        1.85247
H         -3.84690        1.16564        1.36033
C         -5.48512        0.48540       -0.50180
O         -6.13219        1.15130        0.28334
N         -5.83562        0.31395       -1.80164
H         -6.80905        0.49573       -2.03848
O         -5.24141       -0.67677       -2.54037
H         -4.63798       -0.22723       -3.15051
H          3.75853        0.54085       -0.34486
H          2.72701        0.63358       -1.79212
N          0.73851        2.06173       -0.73857
C          2.05028        1.82636       -0.11710
C          2.76116        3.15004       -0.47796
C          2.14963        3.49786       -1.83500
O          0.99957        2.64357       -1.96998
H          1.96371        1.78024        0.97055
C          4.28048        3.11341       -0.46242
H          2.42640        3.88987        0.26587
H          1.83583        4.54933       -1.89790
H          2.81802        3.26307       -2.67589
O          4.78739        2.67061        0.77784
H          4.65604        2.41908       -1.22878
H          4.66365        4.11617       -0.72174
H          4.51497        3.30145        1.45570
O          2.85358       -1.74417       -0.98016
S          2.54033       -3.37011       -0.71893
O          3.41878       -3.74396        0.39192
O          1.10307       -3.41118       -0.37734
O          2.88582       -3.94906       -2.01083
H         -2.69098       -3.63588        1.61549
H          1.90393       -0.12673        3.78771
