59
ZTX_ketone_65_solv.log	Energy: -1435168.6080635
C         -1.34852        1.44993       -0.75971
N         -1.53871        1.41759        0.66986
C         -0.97432        0.48741        1.43868
C         -0.16947        2.25016       -1.35897
H         -2.21204        1.97503       -1.17771
N         -1.08988        0.54146        2.75170
H         -1.54387        1.33684        3.19135
H         -2.34139        1.93477        1.05157
N         -0.22784       -0.47680        0.85937
C          1.09520       -0.98546       -0.99429
C          1.99550       -0.85667        0.25236
C          1.01198       -0.99787        1.43232
O          1.45153       -1.12672       -2.12736
H          1.31936       -0.39308        2.29410
H          0.89464       -2.03677        1.76168
O         -0.41821        3.01350       -2.27181
C         -1.30332        0.03379       -1.33730
C         -0.37523       -0.88315       -0.53412
N         -1.05290       -2.15320       -0.65587
C         -2.35973       -1.96359       -0.87485
N         -2.58184       -0.68388       -1.23976
H         -0.97590        0.06790       -2.38833
N         -3.26461       -2.90808       -0.78213
H         -0.62795       -3.00982       -0.29834
C         -3.84376       -0.07119       -1.53895
H         -4.25311       -2.67650       -0.81182
C          2.69705        0.51129        0.26312
O         -4.26049        0.77021       -0.47598
H         -3.73276        0.59099       -2.40430
H         -4.59955       -0.83154       -1.76744
C         -4.70678        0.16617        0.63744
O         -5.02281       -1.00327        0.70528
N         -4.82170        1.03367        1.67625
H         -4.95262        0.62883        2.60092
O         -4.10057        2.19998        1.67696
H         -4.70090        2.90602        1.39096
H          3.31197        0.52767        1.17332
H          3.37483        0.54380       -0.60275
N          1.12045        1.88228       -1.05343
C          1.78613        1.73985        0.25052
C          2.54287        3.08399        0.32232
C          2.84986        3.37637       -1.14941
O          2.06311        2.43745       -1.90362
H          1.05040        1.71517        1.05868
C          3.76534        3.12953        1.22790
H          1.82036        3.82809        0.69206
H          2.57751        4.40040       -1.44155
H          3.90077        3.18774       -1.41058
O          4.36671        4.40592        1.20980
H          3.48064        2.82868        2.25234
H          4.53081        2.42331        0.87402
H          3.73448        5.03815        1.57309
O          3.03647       -1.80478        0.22238
S          2.67344       -3.43643        0.33732
O          2.69192       -3.72279        1.77395
O          1.33299       -3.55264       -0.27307
O          3.75716       -4.03448       -0.43187
H         -2.99466       -3.81844       -0.42144
H         -0.79607       -0.23806        3.33150
