59
ZTX_ketone_309_solv.log	Energy: -1435159.5274242
C          1.37251        1.32223        0.59675
N          1.48980        1.55091       -0.82397
C          0.83294        0.83230       -1.73266
C          0.24662        2.02081        1.39655
H          2.27550        1.73308        1.05926
N          0.80584        1.20146       -2.99787
H          1.20016        2.09394       -3.28065
H          2.10390        2.29562       -1.14223
N          0.15465       -0.26266       -1.33013
C         -1.05825       -1.16797        0.45356
C         -2.04698       -0.75791       -0.65817
C         -1.13088       -0.67702       -1.89228
O         -1.29837       -1.60508        1.53940
H         -1.49060        0.05382       -2.62581
H         -1.05503       -1.66397       -2.36844
O          0.56081        2.62940        2.40005
C          1.30622       -0.17452        0.90500
C          0.38641       -0.93361       -0.06338
N          1.10305       -2.18126       -0.22905
C          2.39506       -2.03711        0.10448
N          2.58550       -0.86241        0.73994
H          0.94955       -0.32439        1.93651
N          3.33285       -2.91992       -0.12992
H          0.79445       -2.88699       -0.89437
C          3.71761       -0.53763        1.56644
H          4.31287       -2.63377       -0.01820
C         -2.71570        0.59696       -0.35382
O          4.61569        0.35298        0.93345
H          3.35586       -0.00970        2.45575
H          4.23472       -1.45362        1.87779
C          5.57674       -0.18358        0.15749
O          5.69780       -1.37368       -0.06764
N          6.40241        0.78324       -0.28918
H          6.12383        1.76124       -0.23870
O          7.26625        0.46213       -1.29643
H          8.13488        0.35000       -0.88103
H         -3.36413        0.79806       -1.21723
H         -3.35498        0.46807        0.52900
N         -1.06042        1.68904        1.12020
C         -1.79081        1.79383       -0.15122
C         -2.52867        3.13242        0.07179
C         -2.80261        3.11343        1.57431
O         -1.94709        2.08750        2.11012
H         -1.09759        1.92997       -0.98401
C         -3.75779        3.36328       -0.79161
H         -1.79793        3.92651       -0.14889
H         -2.57020        4.07257        2.05789
H         -3.83592        2.82282        1.81352
O         -3.46759        3.24243       -2.16738
H         -4.53450        2.61895       -0.56121
H         -4.18115        4.35480       -0.55214
H         -2.81636        3.91700       -2.39659
O         -3.02011       -1.73133       -0.96179
S         -4.01889       -2.51655        0.13856
O         -5.12422       -2.87841       -0.74879
O         -3.22194       -3.65327        0.60948
O         -4.35435       -1.53245        1.17473
H          3.10760       -3.76598       -0.64452
H          0.44199        0.58070       -3.71363
