59
ZTX_ketone_68_solv.log	Energy: -1435168.8712033
C          0.68853       -2.01046        0.74894
N          0.09512       -1.81326        2.04883
C         -0.61717       -0.73226        2.36279
C         -0.14895       -2.65075       -0.38680
H          1.49093       -2.74384        0.87338
N         -1.32043       -0.69029        3.47798
H         -1.41036       -1.52011        4.05709
H          0.21330       -2.53949        2.74994
N         -0.64516        0.30335        1.49914
C         -0.59639        0.81284       -0.78153
C         -2.02495        1.02894       -0.25074
C         -1.83628        1.12583        1.27717
O         -0.23340        0.86661       -1.92001
H         -2.69691        0.71252        1.81629
H         -1.67490        2.15529        1.61727
O          0.34173       -3.58670       -0.98625
C          1.27535       -0.70480        0.21643
C          0.31994        0.48023        0.41966
N          1.24009        1.55885        0.67531
C          2.45544        1.10797        0.98810
N          2.48509       -0.24501        0.91004
H          1.48969       -0.80786       -0.85952
N          3.46610        1.86806        1.33668
H          0.95131        2.53599        0.60916
C          3.66302       -1.04788        1.05347
H          4.42093        1.49743        1.26508
C         -2.91739       -0.16171       -0.63831
O          4.38907       -1.18095       -0.15733
H          4.29737       -0.62974        1.84417
H          3.37012       -2.06197        1.34081
C          5.45947       -0.38293       -0.33979
O          5.78359        0.52050        0.40968
N          6.13371       -0.76184       -1.44242
H          5.70432       -1.38784       -2.12080
O          7.07988        0.09124       -1.93280
H          7.93656       -0.27333       -1.66289
H         -3.90805        0.05223       -0.21619
H         -3.00603       -0.16689       -1.73468
N         -1.25517       -1.98061       -0.86096
C         -2.46225       -1.53649       -0.14870
C         -3.42715       -2.68871       -0.50766
C         -2.96884       -3.08257       -1.91198
O         -1.69008       -2.44776       -2.09212
H         -2.30442       -1.55616        0.93164
C         -4.90963       -2.37410       -0.39298
H         -3.19514       -3.51047        0.18789
H         -2.85921       -4.16987       -2.02928
H         -3.62892       -2.69261       -2.70017
O         -5.25303       -1.90429        0.89253
H         -5.19295       -1.58772       -1.10838
H         -5.48657       -3.27660       -0.66218
H         -5.03696       -2.59548        1.53078
O         -2.62437        2.15245       -0.85234
S         -1.99447        3.68000       -0.57236
O         -2.30961        4.36272       -1.82064
O         -0.55546        3.44142       -0.33602
O         -2.71054        4.16781        0.60837
H          3.33178        2.87439        1.36978
H         -1.74874        0.17423        3.79333
