59
ZTX_ketone_3_solv.log	Energy: -1435167.8602855
C          0.60555       -1.97454        0.89609
N          0.06319       -1.68118        2.20047
C         -0.56874       -0.54270        2.48076
C         -0.30411       -2.60708       -0.18556
H          1.36628       -2.74875        1.03316
N         -1.23315       -0.39982        3.61089
H         -1.36406       -1.19160        4.23356
H          0.16005       -2.38036        2.93140
N         -0.55607        0.45066        1.56837
C         -0.53927        0.85804       -0.73174
C         -1.93589        1.18898       -0.17342
C         -1.69404        1.34379        1.34140
O         -0.20700        0.84108       -1.88061
H         -2.56283        1.01770        1.92501
H         -1.45042        2.37415        1.62536
O          0.10129       -3.60291       -0.74997
C          1.25692       -0.73584        0.28434
C          0.38819        0.51792        0.45903
N          1.38472        1.54225        0.64443
C          2.57714        1.02405        0.94231
N          2.51550       -0.32998        0.92079
H          1.42974       -0.90336       -0.79124
N          3.64566        1.72825        1.23087
H          1.15742        2.53287        0.54616
C          3.64255       -1.20702        1.04009
H          4.57158        1.29358        1.14899
C         -2.91518        0.04439       -0.48508
O          4.29486       -1.43243       -0.19808
H          4.34230       -0.80839        1.78400
H          3.29480       -2.18815        1.37656
C          5.37221       -0.67602       -0.48847
O          5.81509        0.20074        0.23072
N          5.85562       -1.01201       -1.70026
H          5.58726       -1.89214       -2.13629
O          7.07963       -0.52144       -2.05334
H          6.90971        0.20276       -2.67484
H         -3.87942        0.34357       -0.05199
H         -3.03362        0.00284       -1.57793
N         -1.36784       -1.87506       -0.67217
C         -2.53902       -1.34160        0.04165
C         -3.57916       -2.43803       -0.27489
C         -3.14652       -2.92418       -1.66149
O         -1.84559       -2.35153       -1.88278
H         -2.36637       -1.34425        1.12102
C         -5.03553       -2.02582       -0.18888
H         -3.41746       -3.24589        0.45411
H         -3.07969       -4.01962       -1.72217
H         -3.79627       -2.55040       -2.46553
O         -5.81132       -3.18499       -0.40689
H         -5.23660       -1.58561        0.80534
H         -5.25951       -1.25589       -0.94813
H         -6.73411       -2.91643       -0.47791
O         -2.47901        2.32239       -0.80909
S         -1.74132        3.81489       -0.61471
O         -2.05005        4.46378       -1.88238
O         -2.38656        4.39897        0.56344
O         -0.31462        3.48999       -0.40839
H          3.57827        2.74169        1.22315
H         -1.59350        0.50635        3.89220
