59
ZTX_ketone_40_solv.log	Energy: -1435168.5402611
C          0.86458       -1.87816        0.81833
N          0.26633       -1.66868        2.11420
C         -0.50513       -0.61920        2.39337
C          0.06555       -2.61324       -0.28809
H          1.71154       -2.55569        0.96311
N         -1.19920       -0.57112        3.51400
H         -1.23646       -1.37997        4.12754
H          0.42702       -2.36188        2.84011
N         -0.60281        0.37791        1.48978
C         -0.60853        0.78807       -0.81143
C         -2.04293        0.93615       -0.27241
C         -1.84716        1.11051        1.24768
O         -0.26123        0.81477       -1.95569
H         -2.67266        0.66213        1.81322
H         -1.75204        2.16096        1.54509
O          0.62199       -3.52684       -0.86491
C          1.36801       -0.55881        0.23607
C          0.33816        0.56902        0.39182
N          1.18762        1.71632        0.58819
C          2.42607        1.35782        0.92912
N          2.54102        0.00744        0.91398
H          1.59379       -0.69097       -0.83447
N          3.38488        2.19394        1.24789
H          0.83410        2.66859        0.48518
C          3.76336       -0.71115        1.11772
H          4.36176        1.88137        1.20093
C         -2.86053       -0.32450       -0.59804
O          4.50981       -0.87583       -0.07759
H          4.36087       -0.20702        1.88630
H          3.53162       -1.72216        1.46459
C          5.50884       -0.01260       -0.31443
O          5.78771        0.93551        0.40387
N          6.21426       -0.32610       -1.41837
H          6.85103        0.37426       -1.79258
O          5.73417       -1.23580       -2.31804
H          6.23109       -2.05388       -2.16490
H         -3.85895       -0.15708       -0.17267
H         -2.95873       -0.38367       -1.69208
N         -1.09447       -2.04977       -0.76770
C         -2.31422       -1.64514       -0.05550
C         -3.21572       -2.86675       -0.34514
C         -2.75173       -3.30079       -1.73580
O         -1.51650       -2.60064       -1.96769
H         -2.13665       -1.60685        1.02115
C         -4.70712       -2.62802       -0.23618
H         -2.93523       -3.63828        0.38727
H         -2.57785       -4.38408       -1.80074
H         -3.44385       -2.99134       -2.53198
O         -4.98536       -2.18361        1.07449
H         -5.03036       -1.88884       -0.99058
H         -5.23410       -3.57237       -0.46277
H         -5.92002       -1.95294        1.12148
O         -2.71881        1.99185       -0.91416
S         -2.18941        3.56725       -0.70326
O         -2.92059        4.05345        0.46897
O         -0.73446        3.43486       -0.48126
O         -2.56719        4.17652       -1.97195
H          3.18733        3.19034        1.23503
H         -1.67131        0.28081        3.79925
