59
ZTX_ketone_245_solv.log	Energy: -1435159.4496318
C          1.06107       -2.01326        0.21005
N          0.59496       -2.29762        1.54618
C         -0.10594       -1.42808        2.27226
C          0.12926       -2.28358       -0.99514
H          1.89281       -2.69517        0.01047
N         -0.69962       -1.80469        3.38758
H         -0.72039       -2.78519        3.65261
H          0.78664       -3.21498        1.93937
N         -0.23390       -0.16103        1.82614
C         -0.42544        1.10859       -0.13104
C         -1.81282        1.02279        0.53621
C         -1.44970        0.64055        1.98389
O         -0.12774        1.67575       -1.14035
H         -2.24226        0.05949        2.46919
H         -1.25005        1.54573        2.57326
O          0.56867       -2.94192       -1.91561
C          1.56017       -0.57260        0.10007
C          0.61165        0.41871        0.79556
N          1.54469        1.38360        1.32812
C          2.78875        0.89497        1.37258
N          2.83428       -0.32113        0.78331
H          1.65631       -0.29435       -0.96137
N          3.80941        1.51008        1.91877
H          1.25453        2.22342        1.82322
C          4.04493       -1.02740        0.47557
H          4.76435        1.22979        1.66772
C         -2.71357       -0.03517       -0.12388
O          4.64119       -0.59437       -0.73465
H          4.74778       -0.92767        1.31091
H          3.81447       -2.08764        0.33873
C          5.66519        0.28054       -0.65211
O          6.08226        0.75808        0.38745
N          6.12269        0.56925       -1.88492
H          5.88438       -0.02319       -2.67788
O          7.29781        1.25610       -1.98324
H          7.05847        2.17352       -2.18585
H         -3.64842       -0.04753        0.44951
H         -2.94416        0.28987       -1.14708
N         -1.02930       -1.54476       -1.10985
C         -2.16159       -1.45589       -0.17492
C         -3.13425       -2.47654       -0.81365
C         -2.79176       -2.38488       -2.30269
O         -1.58883       -1.60081       -2.37670
H         -1.88254       -1.82996        0.81214
C         -4.60366       -2.26349       -0.51238
H         -2.84332       -3.46702       -0.43374
H         -2.61635       -3.37257       -2.75236
H         -3.55239       -1.84605       -2.88509
O         -4.78417       -2.33546        0.88582
H         -4.93613       -1.28877       -0.91208
H         -5.18705       -3.04337       -1.03439
H         -5.69870       -2.10211        1.08211
O         -2.38372        2.31267        0.58666
S         -3.49177        2.91785       -0.51986
O         -2.93938        2.62366       -1.84816
O         -4.74908        2.22115       -0.22242
O         -3.46894        4.32820       -0.13724
H          3.66580        2.42647        2.33314
H         -1.09631       -1.12020        4.02308
