59
ZTX_ketone_215_solv.log	Energy: -1435167.8848714
C         -1.33583        1.45784       -0.43073
N         -1.33306        1.40418        1.01120
C         -0.57279        0.55604        1.70030
C         -0.30799        2.35410       -1.16362
H         -2.28891        1.90714       -0.72806
N         -0.45200        0.66533        3.00883
H         -0.85418        1.45990        3.49752
H         -1.95917        2.02399        1.51830
N          0.11818       -0.39176        1.03239
C          1.19237       -0.86515       -0.98622
C          2.25423       -0.64981        0.10788
C          1.46500       -0.81341        1.42225
O          1.38628       -1.01319       -2.15727
H          1.85672       -0.16264        2.21392
H          1.46798       -1.84574        1.78984
O         -0.73145        3.13677       -1.99068
C         -1.25043        0.05229       -1.02622
C         -0.20328       -0.82249       -0.32375
N         -0.84005       -2.11781       -0.34870
C         -2.16049       -2.00165       -0.52160
N         -2.47525       -0.73142       -0.86020
H         -1.00717        0.11964       -2.09916
N         -3.02575       -2.97966       -0.40745
H         -0.35314       -2.95127       -0.01962
C         -3.72229       -0.30705       -1.43376
H         -4.02187       -2.74337       -0.34085
C          2.86069        0.75797       -0.02056
O         -4.53412        0.38208       -0.50124
H         -3.51324        0.41418       -2.23120
H         -4.25837       -1.16486       -1.85766
C         -5.32430       -0.36026        0.28690
O         -5.41392       -1.57621        0.22525
N         -5.99166        0.37895        1.19612
H         -6.76881       -0.06035        1.68582
O         -6.07008        1.73768        1.06134
H         -5.45094        2.10726        1.70907
H          3.62710        0.82386        0.76346
H          3.37288        0.81277       -0.99261
N          1.03027        2.03920       -1.07417
C          1.88301        1.92606        0.11737
C          2.54201        3.32270        0.10310
C          2.70175        3.58467       -1.39153
O          1.80341        2.66707       -2.04185
H          1.27767        1.85253        1.02367
C          3.81948        3.49687        0.91019
H          1.79123        4.01667        0.51064
H          2.43674        4.61428       -1.66947
H          3.71449        3.35519       -1.75495
O          3.60758        3.33677        2.29633
H          4.61061        2.82231        0.53861
H          4.18270        4.52444        0.75810
H          3.53459        2.39575        2.49542
O          3.33558       -1.53650       -0.05397
S          3.08390       -3.18471        0.13020
O          3.33936       -3.44271        1.54900
O          1.67359       -3.37966       -0.26451
O          4.06763       -3.73812       -0.79186
H         -2.70626       -3.89193       -0.09568
H         -0.00560       -0.06742        3.55120
