59
ZTX_ketone_316_solv.log	Energy: -1435162.9513605
C         -1.04706        1.68325        0.98322
N         -0.33909        1.55885        2.23450
C          0.56509        0.60829        2.46103
C         -0.41255        2.49253       -0.17434
H         -1.96064        2.25030        1.18724
N          1.33791        0.65061        3.52849
H          1.32252        1.46149        4.14009
H         -0.53379        2.23182        2.97117
N          0.71588       -0.38024        1.55466
C          0.60589       -0.82913       -0.73560
C          2.08259       -0.79923       -0.30165
C          2.01693       -0.96825        1.22967
O          0.18323       -0.92013       -1.85069
H          2.82313       -0.41872        1.73005
H          2.06650       -2.01763        1.54175
O         -1.09666        3.34149       -0.70987
C         -1.42723        0.30965        0.43227
C         -0.27249       -0.69400        0.53060
N         -0.97647       -1.92173        0.80282
C         -2.22269       -1.69572        1.21320
N         -2.50203       -0.36617        1.17315
H         -1.72516        0.40543       -0.62437
N         -3.04705       -2.63673        1.60221
H         -0.50961       -2.82861        0.75000
C         -3.83868        0.13932        1.11697
H         -4.00557       -2.43427        1.86573
C          2.72377        0.54133       -0.69862
O         -4.32495       -0.07301       -0.20247
H         -4.47397       -0.37364        1.85128
H         -3.83855        1.20944        1.35613
C         -5.48575        0.52065       -0.50316
O         -6.13849        1.17960        0.28316
N         -5.83317        0.35082       -1.80402
H         -6.80728        0.52751       -2.04191
O         -5.23193       -0.63440       -2.54446
H         -4.63052       -0.17973       -3.15278
H          3.76803        0.48118       -0.36334
H          2.72715        0.59342       -1.79742
N          0.75882        2.03701       -0.74019
C          2.07259        1.80047       -0.12314
C          2.78290        3.12044       -0.50013
C          2.19306        3.42273       -1.87597
O          1.01626        2.60184       -1.98121
H          1.99246        1.76289        0.96593
C          4.30382        3.13042       -0.46559
H          2.42577        3.87423        0.21768
H          1.91500        4.47989       -1.99009
H          2.86195        3.12832       -2.69811
O          4.82005        2.96006        0.83644
H          4.71227        2.38137       -1.16656
H          4.64618        4.11480       -0.81907
H          4.75193        2.02906        1.07799
O          2.82870       -1.78162       -0.98064
S          2.49940       -3.40359       -0.71302
O          3.37682       -3.78218        0.39705
O          1.06269       -3.42887       -0.36805
O          2.83631       -3.99003       -2.00376
H         -2.73367       -3.60280        1.62322
H          1.91467       -0.14395        3.78574
