59
ZTX_ketone_197_solv.log	Energy: -1435165.8218963
C         -1.31329        1.31852        1.25779
N         -0.61873        1.08705        2.50147
C          0.37513        0.20901        2.62438
C         -0.74014        2.35152        0.25708
H         -2.28347        1.75752        1.50853
N          1.11532        0.18058        3.71601
H          1.00712        0.89853        4.42619
H         -0.89320        1.62912        3.31628
N          0.64264       -0.62533        1.59757
C          0.62676       -0.73657       -0.73916
C          2.08255       -0.62811       -0.25371
C          2.00185       -1.03202        1.23229
O          0.23792       -0.70599       -1.87005
H          2.74206       -0.49436        1.83608
H          2.14555       -2.10785        1.38443
O         -1.48443        3.21934       -0.15157
C         -1.53781        0.00675        0.50984
C         -0.28598       -0.87854        0.50147
N         -0.86254       -2.19776        0.56118
C         -2.12721       -2.16026        0.98006
N         -2.54032       -0.87737        1.12325
H         -1.82078        0.21862       -0.53320
N         -2.85280       -3.22667        1.21571
H         -0.30514       -3.03308        0.37644
C         -3.92226       -0.51099        1.26738
H         -3.83543       -3.16107        1.45880
C          2.59093        0.81292       -0.43423
O         -4.65762       -0.68478        0.07058
H         -4.39651       -1.15348        2.01721
H         -3.98376        0.52652        1.61182
C         -4.71037        0.36438       -0.78094
O         -4.14004        1.41935       -0.60730
N         -5.52826        0.06455       -1.81605
H         -5.74971       -0.90903       -2.01617
O         -5.47190        0.88527       -2.90897
H         -6.27564        1.42576       -2.87964
H          3.62700        0.82755       -0.07384
H          2.61238        1.01986       -1.51385
N          0.47576        2.09030       -0.34096
C          1.79635        1.90408        0.28365
C          2.36391        3.33405        0.13893
C          1.75516        3.79766       -1.18499
O          0.69956        2.86347       -1.47140
H          1.69026        1.69992        1.35202
C          3.87264        3.51599        0.28461
H          1.90730        3.91549        0.95413
H          1.34084        4.81394       -1.12149
H          2.45770        3.74036       -2.02798
O          4.65078        2.96050       -0.75155
H          4.07921        4.59433        0.39377
H          4.19033        3.03281        1.22125
H          4.60572        3.54219       -1.51880
O          2.93899       -1.42325       -1.04052
S          2.77047       -3.09005       -1.02426
O          3.19802       -3.44417       -2.37191
O          3.65416       -3.54295        0.05269
O          1.33598       -3.30865       -0.74540
H         -2.43694       -4.14848        1.12135
H          1.76937       -0.57717        3.88429
