59
ZTX_ketone_30_solv.log	Energy: -1435167.4590936
C         -1.25840        1.39894        1.14638
N         -0.50822        1.26252        2.37166
C          0.49982        0.40347        2.51249
C         -0.74588        2.35862        0.04391
H         -2.22223        1.84552        1.40712
N          1.28736        0.45767        3.56930
H          1.19744        1.21948        4.23508
H         -0.75883        1.85279        3.16018
N          0.73267       -0.49728        1.53486
C          0.61417       -0.78212       -0.78321
C          2.08899       -0.62685       -0.37271
C          2.07965       -0.91739        1.14181
O          0.17555       -0.83460       -1.89483
H          2.83821       -0.32738        1.66950
H          2.24444       -1.97669        1.36946
O         -1.52434        3.17705       -0.40156
C         -1.50201        0.03556        0.50409
C         -0.24162       -0.83908        0.50444
N         -0.80017       -2.15488        0.68680
C         -2.05113       -2.09808        1.14370
N         -2.46890       -0.81186        1.21865
H         -1.83071        0.17244       -0.53795
N         -2.76195       -3.15114        1.46845
H         -0.24792       -2.99769        0.52137
C         -3.84004       -0.44140        1.43452
H         -3.74010       -3.07593        1.72686
C          2.57081        0.80192       -0.67405
O         -4.66114       -0.70668        0.31257
H         -4.25290       -1.03056        2.26052
H         -3.88720        0.61830        1.70713
C         -4.75213        0.25887       -0.63030
O         -4.19759        1.33458       -0.56803
N         -5.51386       -0.18490       -1.65615
H         -6.13964       -0.97550       -1.51429
O         -5.94674        0.74583       -2.55958
H         -5.40701        0.61783       -3.35402
H          3.61630        0.84574       -0.34219
H          2.55210        0.93512       -1.76584
N          0.44904        2.07158       -0.58176
C          1.79353        1.93443       -0.00226
C          2.35783        3.34476       -0.28697
C          1.67416        3.71834       -1.60247
O          0.61798        2.75690       -1.77549
H          1.73605        1.80967        1.08133
C          3.87325        3.46117       -0.31135
H          1.97516        3.99648        0.51399
H          1.24957        4.73193       -1.58252
H          2.33982        3.61629       -2.47165
O          4.46019        2.99909        0.88583
H          4.29199        2.85510       -1.12850
H          4.14654        4.51113       -0.51745
H          4.15383        3.56284        1.60699
O          2.91980       -1.46918       -1.13677
S          2.77037       -3.13270       -0.99292
O          3.70061       -3.50050        0.07702
O          1.35040       -3.34029       -0.63997
O          3.14674       -3.57883       -2.32827
H         -2.34275       -4.07509        1.42018
H          1.95229       -0.28441        3.76344
