59
ZTX_ketone_48_solv.log	Energy: -1435167.2177535
C          0.74848       -1.86803        0.96763
N          0.19193       -1.55873        2.26212
C         -0.49814       -0.44588        2.50502
C         -0.13245       -2.58047       -0.08851
H          1.54530       -2.60008        1.12835
N         -1.17560       -0.30481        3.62779
H         -1.26647       -1.08375        4.27343
H          0.31379       -2.23299        3.01247
N         -0.52933        0.51934        1.56342
C         -0.53160        0.85044       -0.74978
C         -1.94191        1.13382       -0.20089
C         -1.70744        1.35021        1.30795
O         -0.19793        0.81127       -1.89768
H         -2.56101        1.00424        1.90287
H         -1.51233        2.39957        1.55762
O          0.31823       -3.57509       -0.61974
C          1.33911       -0.62036        0.31408
C          0.41038        0.59461        0.45047
N          1.35483        1.67208        0.59940
C          2.57299        1.22376        0.90427
N          2.57876       -0.13188        0.92972
H          1.51686       -0.81417       -0.75628
N          3.60681        1.98968        1.15941
H          1.08146        2.64661        0.46543
C          3.75240       -0.94256        1.06325
H          4.55226        1.59726        1.08322
C         -2.86510       -0.06653       -0.47116
O          4.40533       -1.16568       -0.17636
H          4.43578       -0.48519        1.78845
H          3.46351       -1.93197        1.42968
C          5.45059       -0.38197       -0.48139
O          5.85052        0.53910        0.21459
N          6.05334       -0.74629       -1.62896
H          6.72416       -0.10333       -2.04422
O          5.45278       -1.62285       -2.48773
H          5.89323       -2.47610       -2.35380
H         -3.84283        0.20286       -0.04886
H         -2.97962       -0.15514       -1.56173
N         -1.23366       -1.91970       -0.59302
C         -2.42302       -1.41099        0.10883
C         -3.41432       -2.56536       -0.15238
C         -2.96788       -3.09087       -1.52029
O         -1.69836       -2.46562       -1.77887
H         -2.24191       -1.35922        1.18561
C         -4.88681       -2.21362       -0.07217
H         -3.21283       -3.33295        0.60943
H         -2.84762       -4.18335       -1.53330
H         -3.64059       -2.78527       -2.33410
O         -5.61383       -3.41377       -0.22687
H         -5.09911       -1.73497        0.90181
H         -5.15042       -1.49167       -0.86505
H         -6.54778       -3.18747       -0.30029
O         -2.53927        2.21702       -0.87373
S         -1.87788        3.75039       -0.72992
O         -2.21976        4.33999       -2.01791
O         -2.55206        4.33976        0.42920
O         -0.43662        3.50570       -0.51557
H          3.49022        2.99766        1.11055
H         -1.58137        0.58951        3.88394
