59
ZTX_ketone_12_solv.log	Energy: -1435167.6990533
C          0.59469       -1.99081        0.83042
N          0.07650       -1.70891        2.14716
C         -0.53845       -0.56727        2.45182
C         -0.33650       -2.60315       -0.24469
H          1.35115       -2.77287        0.94563
N         -1.17662       -0.42904        3.59767
H         -1.29680       -1.22483        4.21745
H          0.18534       -2.41458        2.87021
N         -0.53739        0.43375        1.54798
C         -0.56640        0.85664       -0.74929
C         -1.94799        1.19470       -0.15762
C         -1.67067        1.33956        1.35204
O         -0.26016        0.84387       -1.90541
H         -2.52949        1.01940        1.95340
H         -1.40942        2.36563        1.63591
O          0.06144       -3.58591       -0.83757
C          1.24705       -0.74928        0.22479
C          0.38419        0.50504        0.41942
N          1.38589        1.52564        0.59407
C          2.57528        1.00141        0.89469
N          2.51010       -0.35228        0.85931
H          1.41157       -0.90777       -0.85342
N          3.64332        1.70011        1.19520
H          1.15740        2.51790        0.51737
C          3.63506       -1.23096        0.97971
H          4.57003        1.26220        1.13306
C         -2.94296        0.05885       -0.45134
O          4.32786       -1.40746       -0.24562
H          4.31154       -0.85842        1.75788
H          3.27845       -2.22357        1.27048
C          5.45002       -0.68833       -0.44279
O          5.85724        0.17822        0.30982
N          6.07154       -1.09864       -1.56557
H          5.58087       -1.67788       -2.24414
O          7.05874       -0.30068       -2.06887
H          7.89709       -0.71528       -1.81409
H         -3.89331        0.36163        0.00898
H         -3.09063        0.02664       -1.54095
N         -1.41450       -1.86950       -0.69204
C         -2.56403       -1.33430        0.05466
C         -3.62060       -2.41885       -0.25002
C         -3.22827       -2.88522       -1.65446
O         -1.92333       -2.32987       -1.89641
H         -2.36623       -1.34878        1.12939
C         -5.07897       -2.00300       -0.12148
H         -3.43936       -3.23829        0.46294
H         -3.18110       -3.98013       -1.73807
H         -3.89113       -2.48581       -2.43525
O         -5.94406       -3.07837       -0.41509
H         -5.26165       -1.59913        0.89071
H         -5.31714       -1.20931       -0.84491
H         -5.78821       -3.77168        0.23796
O         -2.49751        2.33522       -0.77473
S         -1.74717        3.82225       -0.58701
O         -2.35966        4.40070        0.61125
O         -0.31753        3.48801       -0.41910
O         -2.08358        4.48234       -1.84177
H          3.57765        2.71364        1.20055
H         -1.51806        0.47851        3.89755
