59
ZTX_ketone_49_solv.log	Energy: -1435165.6038180
C         -1.22168        1.34816        1.20429
N         -0.52467        1.11010        2.44494
C          0.42306        0.18421        2.57925
C         -0.60971        2.32802        0.17430
H         -2.16721        1.83757        1.45440
N          1.17228        0.14304        3.66442
H          1.10191        0.87804        4.36188
H         -0.76618        1.67951        3.25152
N          0.63704       -0.68568        1.56891
C          0.59270       -0.84084       -0.76522
C          2.05783       -0.79559       -0.29449
C          1.97067       -1.16716        1.19991
O          0.19559       -0.81482       -1.89315
H          2.74197       -0.65711        1.78856
H          2.06106       -2.24589        1.37126
O         -1.31254        3.22207       -0.24954
C         -1.52008        0.03251        0.49064
C         -0.31374       -0.91390        0.48616
N         -0.95503       -2.20159        0.57764
C         -2.21068       -2.09183        1.01273
N         -2.55350       -0.78729        1.14098
H         -1.81026        0.23325       -0.55275
N         -2.98869       -3.11438        1.27447
H         -0.44405       -3.06741        0.39898
C         -3.90834       -0.34454        1.32129
H         -3.96178       -2.99447        1.53511
C          2.63781        0.61414       -0.50192
O         -4.68329       -0.47676        0.14463
H         -4.39653       -0.96102        2.08360
H         -3.90351        0.69449        1.66773
C         -4.71080        0.57910       -0.69991
O         -4.08760        1.60535       -0.53679
N         -5.56955        0.32345       -1.71331
H         -5.84347       -0.63712       -1.91114
O         -5.50900        1.14893       -2.80216
H         -6.28832        1.72223       -2.74683
H          3.67219        0.57405       -0.13438
H          2.67066        0.80083       -1.58553
N          0.58616        1.98975       -0.42737
C          1.89957        1.75816        0.19442
C          2.54956        3.14400       -0.00385
C          1.93601        3.60846       -1.32827
O          0.83647        2.71658       -1.58148
H          1.79315        1.58645        1.26838
C          4.07191        3.18498        0.04358
H          2.17700        3.78506        0.80875
H          1.56608        4.64246       -1.28198
H          2.62922        3.50454       -2.17610
O          4.56024        4.50910        0.04938
H          4.41706        2.71280        0.97590
H          4.49886        2.61196       -0.79798
H          4.42189        4.88587       -0.82788
O          2.86558       -1.64544       -1.07462
S          2.61600       -3.30216       -1.02654
O          3.48846       -3.77832        0.04932
O          1.17565       -3.44405       -0.72891
O          3.01091       -3.69933       -2.37209
H         -2.62193       -4.05809        1.19418
H          1.77951       -0.64899        3.84997
