59
ZTX_ketone_2_solv.log	Energy: -1435167.8796317
C          0.59772       -1.98986        0.83306
N          0.07816       -1.70781        2.14919
C         -0.53938       -0.56722        2.45248
C         -0.33168       -2.60408       -0.24242
H          1.35527       -2.77069        0.94937
N         -1.17920       -0.42970        3.59747
H         -1.29942       -1.22566        4.21702
H          0.18651       -2.41331        2.87247
N         -0.53897        0.43345        1.54819
C         -0.56618        0.85561       -0.74927
C         -1.94918        1.19135       -0.15935
C         -1.67391        1.33687        1.35059
O         -0.25844        0.84373       -1.90499
H         -2.53282        1.01511        1.95098
H         -1.41515        2.36354        1.63459
O          0.06694       -3.58742       -0.83356
C          1.24836       -0.74778        0.22684
C          0.38372        0.50560        0.42056
N          1.38416        1.52742        0.59566
C          2.57438        1.00479        0.89585
N          2.51089       -0.34896        0.86110
H          1.41319       -0.90656       -0.85128
N          3.64180        1.70486        1.19553
H          1.15472        2.51937        0.51805
C          3.63673       -1.22644        0.98199
H          4.56889        1.26788        1.13267
C         -2.94208        0.05401       -0.45461
O          4.32888       -1.40410       -0.24353
H          4.31335       -0.85216        1.75920
H          3.28126       -2.21899        1.27436
C          5.45001       -0.68393       -0.44266
O          5.85621        0.18497        0.30777
N          6.07179       -1.09612       -1.56460
H          5.58201       -1.67809       -2.24147
O          7.05810       -0.29840       -2.06999
H          7.89690       -0.71150       -1.81428
H         -3.89373        0.35506        0.00421
H         -3.08753        0.02133       -1.54446
N         -1.40879       -1.87027       -0.69265
C         -2.56064       -1.33805        0.05239
C         -3.61217       -2.42660       -0.25150
C         -3.21732       -2.89354       -1.65560
O         -1.91517       -2.33154       -1.89756
H         -2.36421       -1.35131        1.12738
C         -5.06437       -2.01181       -0.11995
H         -3.43304       -3.24515        0.46139
H         -3.88179       -2.49866       -2.43727
H         -3.16424       -3.98836       -1.73666
O         -5.84949       -3.16562       -0.33284
H         -5.23637       -1.58526        0.88562
H         -5.30687       -1.23049       -0.86164
H         -6.77309       -2.89364       -0.37413
O         -2.49962        2.33096       -0.77736
S         -1.75176        3.81918       -0.58901
O         -2.08729        4.47831       -1.84453
O         -2.36699        4.39713        0.60808
O         -0.32190        3.48717       -0.41874
H          3.57504        2.71832        1.20050
H         -1.52357        0.47714        3.89615
