59
ZTX_ketone_173_solv.log	Energy: -1435166.6550469
C         -1.55575        1.15043       -0.44980
N         -1.61858        1.05669        0.98937
C         -0.79886        0.28179        1.69732
C         -0.61883        2.18761       -1.11089
H         -2.54688        1.48202       -0.77422
N         -0.76683        0.35188        3.01376
H         -1.29076        1.07223        3.50202
H         -2.39460        1.51472        1.46164
N          0.04458       -0.54144        1.04083
C          1.27298       -0.78534       -0.92967
C          2.23862       -0.48096        0.23015
C          1.41193       -0.80764        1.48984
O          1.54413       -0.85870       -2.09252
H          1.67460       -0.15233        2.32845
H          1.52814       -1.84827        1.81344
O         -1.09896        2.92105       -1.95352
C         -1.27318       -0.21414       -1.07357
C         -0.14672       -0.95935       -0.34423
N         -0.58710       -2.32898       -0.44512
C         -1.89756       -2.39402       -0.69193
N         -2.38551       -1.16787       -0.97637
H         -0.99454       -0.08561       -2.13147
N         -2.60020       -3.50140       -0.66804
H          0.01110       -3.10305       -0.15523
C         -3.69900       -0.94102       -1.52607
H         -3.59726       -3.50048       -0.85699
C          2.66199        0.99765        0.18935
O         -4.69680       -0.98354       -0.52625
H         -3.70073        0.01982       -2.05384
H         -3.95872       -1.73570       -2.23633
C         -5.03826        0.16700        0.09307
O         -4.61862        1.26565       -0.20333
N         -5.95518       -0.09316        1.05126
H         -6.06501       -1.04011        1.40825
O         -6.22882        0.90625        1.94241
H         -7.08405        1.27701        1.67675
H          3.36022        1.14355        1.02316
H          3.22173        1.15572       -0.74360
N          0.74218        2.06574       -0.94446
C          1.53615        2.02697        0.29309
C          1.99378        3.50367        0.36572
C          2.11234        3.89150       -1.11094
O          1.47594        2.82781       -1.84055
H          0.88901        1.84262        1.15370
C          3.20764        3.82532        1.22058
H          1.14919        4.05182        0.80765
H          1.60877        4.84330       -1.33346
H          3.15309        3.93153       -1.45583
O          4.39184        3.37431        0.60114
H          3.23842        4.91894        1.37281
H          3.07075        3.36277        2.21493
H          5.12815        3.56545        1.19271
O          3.43539       -1.21132        0.09448
S          3.40260       -2.88231        0.21293
O          4.50407       -3.26159       -0.66316
O          3.61036       -3.15874        1.63625
O          2.05774       -3.25446       -0.27329
H         -2.14907       -4.38039       -0.43354
H         -0.26041       -0.33943        3.55794
