59
ZTX_ketone_209_solv.log	Energy: -1435165.8916691
C          1.07266       -1.57337        1.08640
N          0.43452       -1.31796        2.35521
C         -0.41615       -0.31147        2.54940
C          0.33747       -2.43926        0.03358
H          1.96741       -2.16931        1.28937
N         -1.13887       -0.24484        3.65125
H         -1.12621       -1.01244        4.31653
H          0.63786       -1.94097        3.13203
N         -0.56199        0.61688        1.58021
C         -0.54401        0.88009       -0.74312
C         -1.99723        0.96457       -0.24167
C         -1.84554        1.24943        1.26691
O         -0.17269        0.86542       -1.88001
H         -2.65300        0.79044        1.84934
H         -1.82171        2.32198        1.49155
O          0.93066       -3.38616       -0.43974
C          1.48998       -0.26537        0.41874
C          0.38770        0.79923        0.48850
N          1.15853        2.00968        0.62259
C          2.40963        1.75369        1.00414
N          2.61764        0.41733        1.07030
H          1.73149       -0.44919       -0.63999
N          3.29859        2.67985        1.27288
H          0.73831        2.92962        0.48161
C          3.91932       -0.16558        1.23128
H          4.26943        2.45534        1.46586
C         -2.72205       -0.36616       -0.50549
O          4.70442       -0.07961        0.05565
H          4.46820        0.38441        2.00325
H          3.81255       -1.20663        1.55383
C          4.57552       -1.07673       -0.83847
O          3.82623       -2.02504       -0.70497
N          5.34131       -0.88409       -1.93596
H          5.47924       -1.68207       -2.55286
O          6.36680        0.02284       -1.91567
H          6.06036        0.78366       -2.43177
H         -3.74238       -0.23852       -0.11901
H         -2.78601       -0.49718       -1.59587
N         -0.82586       -1.95194       -0.53032
C         -2.09851       -1.61104        0.12617
C         -2.89347       -2.91202       -0.11445
C         -2.33352       -3.40818       -1.45148
O         -1.16971       -2.60149       -1.70545
H         -1.95532       -1.49661        1.20352
C         -4.40414       -2.78948       -0.07848
H         -2.59760       -3.61323        0.67989
H         -2.04510       -4.46839       -1.41984
H         -3.02304       -3.23952       -2.29071
O         -4.93254       -4.09306       -0.19880
H         -4.71240       -2.31481        0.87137
H         -4.75412       -2.14524       -0.90460
H         -5.89105       -4.02079       -0.26789
O         -2.72616        1.93088       -0.96164
S         -2.30431        3.54873       -0.84458
O         -3.09833        4.06065        0.27470
O         -0.85076        3.52681       -0.57869
O         -2.68391        4.04794       -2.16001
H          3.02846        3.65839        1.23582
H         -1.66152        0.59357        3.88403
