59
ZTX_ketone_83_solv.log	Energy: -1435167.1144341
C         -1.10471        1.65130        1.02866
N         -0.40034        1.48942        2.27766
C          0.50177        0.53097        2.48048
C         -0.46110        2.49655       -0.09866
H         -2.01705        2.21539        1.24379
N          1.27446        0.54804        3.54908
H          1.26393        1.34820        4.17473
H         -0.58916        2.14673        3.02974
N          0.64819       -0.43777        1.55206
C          0.54004       -0.82148       -0.75101
C          2.01563       -0.81425       -0.31463
C          1.94658       -1.02407        1.21201
O          0.11814       -0.87562       -1.86909
H          2.75538       -0.49372        1.72848
H          1.98945       -2.08209        1.49470
O         -1.12855        3.38065       -0.59594
C         -1.48917        0.29480        0.44300
C         -0.33929       -0.71710        0.51662
N         -1.04927       -1.94923        0.74713
C         -2.29227       -1.72724        1.17394
N         -2.56256       -0.39975        1.17093
H         -1.77879        0.41785       -0.61198
N         -3.11667       -2.67897        1.54149
H         -0.59256       -2.85689        0.64564
C         -3.88766        0.13423        1.32062
H         -4.08871       -2.49590        1.76736
C          2.66261        0.53324       -0.67599
O         -4.70310       -0.10877        0.18748
H         -4.38693       -0.35420        2.16429
H         -3.82274        1.20727        1.52871
C         -4.65020        0.79492       -0.80791
O         -3.95198        1.79010       -0.79455
N         -5.50429        0.50016       -1.81517
H         -5.35667        0.98356       -2.69894
O         -6.02764       -0.76068       -1.92560
H         -6.95705       -0.68831       -1.66214
H          3.70270        0.47374       -0.32884
H          2.67000        0.61483       -1.77298
N          0.70601        2.04894       -0.68186
C          2.01561        1.77803       -0.06932
C          2.75091        3.09941       -0.39504
C          2.11848        3.51827       -1.72363
O          0.97681        2.66122       -1.89547
H          1.92776        1.70550        1.01667
C          4.26269        3.02589       -0.43209
H          2.45965        3.81640        0.38681
H          1.79430        4.56865       -1.71943
H          2.77689        3.34031       -2.58569
O          4.71614        2.58816        0.83096
H          4.59034        2.34443       -1.23751
H          4.65782        4.02838       -0.67687
H          5.67187        2.47182        0.78171
O          2.75786       -1.78245       -1.01776
S          2.41392       -3.40910       -0.80569
O          3.28660       -3.83298        0.29158
O          0.97642       -3.43472       -0.46382
O          2.74747       -3.95463       -2.11528
H         -2.79780       -3.64344        1.54159
H          1.85103       -0.25187        3.78940
