59
ZTX_ketone_81_solv.log	Energy: -1435167.0750327
C          0.77734       -1.84972        0.93652
N          0.22684       -1.55109        2.23627
C         -0.46916       -0.44408        2.48964
C         -0.10255       -2.56593       -0.11812
H          1.58201       -2.57531        1.08828
N         -1.13726       -0.31236        3.61924
H         -1.21339       -1.09386        4.26379
H          0.36154       -2.22612        2.98382
N         -0.51819        0.52453        1.55212
C         -0.55148        0.85267       -0.76164
C         -1.95849        1.12131       -0.19590
C         -1.70840        1.34193        1.30997
O         -0.23127        0.81685       -1.91345
H         -2.55082        0.98683        1.91530
H         -1.52195        2.39352        1.55661
O          0.36151       -3.54619       -0.66502
C          1.35113       -0.59246        0.28729
C          0.40739        0.61008        0.42785
N          1.33966        1.70004        0.56412
C          2.56253        1.26738        0.87368
N          2.58303       -0.08735        0.90583
H          1.53178       -0.78057       -0.78363
N          3.58746        2.04552        1.12758
H          1.05343        2.67067        0.42852
C          3.75741       -0.88730        1.08679
H          4.53646        1.66221        1.05130
C         -2.87244       -0.08911       -0.45262
O          4.42729       -1.15760       -0.13360
H          4.42834       -0.39706        1.80218
H          3.46831       -1.86168        1.49154
C          5.45523       -0.36321       -0.46847
O          5.83517        0.59125        0.19250
N          6.06717       -0.75792       -1.60163
H          6.72084       -0.11307       -2.04083
O          5.47682       -1.66758       -2.43312
H          5.93314       -2.50907       -2.27992
H         -3.84670        0.16872       -0.01538
H         -3.00316       -0.17763       -1.54140
N         -1.22206       -1.92287       -0.60139
C         -2.40654       -1.42925        0.11869
C         -3.38719       -2.59424       -0.13441
C         -2.96688       -3.08979       -1.52020
O         -1.69547       -2.46969       -1.78390
H         -2.21110       -1.37831        1.19290
C         -4.87027       -2.27516       -0.01361
H         -3.14695       -3.36870        0.61072
H         -2.85653       -4.18243       -1.56304
H         -3.65092       -2.75851       -2.31459
O         -5.65968       -3.41998       -0.25288
H         -5.07616       -1.83983        0.98092
H         -5.16660       -1.53323       -0.76976
H         -5.45614       -4.06907        0.43169
O         -2.57551        2.19704       -0.86300
S         -1.93132        3.73840       -0.72702
O         -2.59741        4.31904        0.44117
O         -0.48443        3.51155       -0.53158
O         -2.29704        4.32399       -2.01021
H          3.45983        3.05207        1.07739
H         -1.54633        0.57829        3.88288
