59
ZTX_ketone_95_solv.log	Energy: -1435168.5290914
C          1.19104       -1.65541       -0.27531
N          1.24332       -1.49096        1.15720
C          0.57210       -0.53685        1.79887
C          0.06954       -2.51780       -0.90403
H          2.09510       -2.20092       -0.56477
N          0.48019       -0.54059        3.11460
H          0.83002       -1.32759        3.65300
H          1.82458       -2.12789        1.69535
N         -0.05949        0.41302        1.07740
C         -1.14797        0.83735       -0.94337
C         -2.19119        0.79148        0.18697
C         -1.35320        0.97859        1.46716
O         -1.36210        0.92141       -2.11747
H         -1.77604        0.42115        2.31150
H         -1.25637        2.03091        1.75787
O          0.39996       -3.41170       -1.65705
C          1.19877       -0.29805       -0.97815
C          0.25817        0.71588       -0.31318
N          1.00683        1.94219       -0.44936
C          2.30222        1.69862       -0.66928
N          2.49324        0.38343       -0.92138
H          0.90615       -0.42588       -2.03309
N          3.25124        2.60269       -0.66753
H          0.60762        2.83861       -0.17234
C          3.65783       -0.17573       -1.55437
H          4.22751        2.28860       -0.64049
C         -2.92333       -0.56194        0.17175
O          4.49280       -0.86594       -0.64465
H          3.33310       -0.92726       -2.28247
H          4.22073        0.60801       -2.07592
C          5.40059       -0.13772        0.03233
O          5.56558        1.05993       -0.10460
N          6.06564       -0.92577        0.90291
H          6.05491       -1.93653        0.77777
O          7.19959       -0.41630        1.46982
H          6.96636       -0.19543        2.38418
H         -3.66813       -0.51880        0.97601
H         -3.46785       -0.63333       -0.78094
N         -1.23328       -2.06882       -0.82945
C         -2.05338       -1.80391        0.36481
C         -2.82260       -3.14140        0.46280
C         -2.99284       -3.53300       -1.00521
O         -2.07483       -2.70020       -1.73476
H         -1.42132       -1.72556        1.25273
C         -4.08820       -3.17210        1.31663
H         -2.12223       -3.84880        0.93211
H         -2.75480       -4.59081       -1.18661
H         -3.99390       -3.30925       -1.39903
O         -5.18025       -2.44242        0.80378
H         -4.36567       -4.22726        1.48060
H         -3.85027       -2.74639        2.30354
H         -5.58612       -2.95235        0.09345
O         -3.19680        1.75698       -0.01346
S         -2.79927        3.38412        0.03763
O         -3.75175        3.95159       -0.90881
O         -2.99884        3.77263        1.43597
O         -1.38624        3.42438       -0.39281
H          3.02471        3.56232       -0.42392
H          0.10404        0.26125        3.61036
