59
ZTX_ketone_108_solv.log	Energy: -1435168.2301208
C         -1.18956        1.60354       -0.39892
N         -1.20837        1.51281        1.04098
C         -0.50467        0.60718        1.71686
C         -0.10054        2.45366       -1.09817
H         -2.11080        2.11619       -0.69449
N         -0.38348        0.68435        3.02775
H         -0.74632        1.48912        3.53035
H         -1.79096        2.16588        1.55798
N          0.12996       -0.36691        1.03139
C          1.17855       -0.88044       -0.99013
C          2.24736       -0.75321        0.11022
C          1.44271       -0.88772        1.41868
O          1.36751       -1.02253       -2.16277
H          1.87412       -0.28046        2.22375
H          1.37271       -1.92497        1.76557
O         -0.46725        3.29142       -1.89778
C         -1.18814        0.21089       -1.03101
C         -0.21454       -0.75023       -0.33352
N         -0.94481       -1.99409       -0.38281
C         -2.25079       -1.78022       -0.57354
N         -2.46783       -0.48831       -0.90821
H         -0.92117        0.28900       -2.09761
N         -3.18709       -2.69145       -0.47465
H         -0.52981       -2.86264       -0.04677
C         -3.65868        0.01350       -1.53988
H         -4.16598       -2.38558       -0.43457
C          2.94775        0.61309        0.00653
O         -4.47970        0.74558       -0.65012
H         -3.36556        0.72305       -2.32141
H         -4.22062       -0.81130       -1.99567
C         -5.37630        0.05186        0.07666
O         -5.50768       -1.15772        0.03918
N         -6.12889        0.89595        0.80939
H         -5.83422        1.86029        0.94959
O         -6.90470        0.36012        1.79653
H         -7.80979        0.34712        1.44997
H          3.71666        0.60985        0.79109
H          3.46304        0.64976       -0.96477
N          1.21367        2.04383       -1.02082
C          2.05491        1.84502        0.16793
C          2.80774        3.19402        0.18660
C          2.98784        3.48037       -1.30085
O          2.02748        2.64502       -1.97262
H          1.44492        1.79522        1.07250
C          4.09028        3.25994        1.00130
H          2.10425        3.92701        0.60996
H          2.79683        4.53266       -1.55341
H          3.98227        3.18858       -1.67022
O          3.86058        3.07976        2.38195
H          4.83380        2.54094        0.61422
H          4.52535        4.26297        0.87816
H          3.65842        2.15077        2.54617
O          3.26945       -1.70554       -0.06361
S          2.91021       -3.33646        0.08982
O          1.49036       -3.43147       -0.30703
O          3.85657       -3.93616       -0.84279
O          3.14830       -3.63635        1.50352
H         -2.93938       -3.62992       -0.17573
H          0.00587       -0.08799        3.55887
