59
ZTX_ketone_252_solv.log	Energy: -1435166.9504031
C         -1.41611        1.28464       -0.53177
N         -1.50653        1.23288        0.90686
C         -0.76696        0.40729        1.64458
C         -0.36791        2.20374       -1.19983
H         -2.36297        1.70807       -0.87787
N         -0.74002        0.51483        2.95866
H         -1.19515        1.29900        3.41673
H         -2.26165        1.74995        1.35128
N         -0.00188       -0.51207        1.02013
C          1.21723       -0.92825       -0.92713
C          2.19579       -0.69891        0.24034
C          1.32386       -0.90996        1.49463
O          1.49397       -1.05663       -2.08372
H          1.64395       -0.26645        2.32290
H          1.32581       -1.94967        1.84141
O         -0.75555        2.96307       -2.06577
C         -1.26073       -0.11601       -1.11926
C         -0.21926       -0.94677       -0.35607
N         -0.78848       -2.27000       -0.42492
C         -2.09426       -2.21640       -0.69670
N         -2.46007       -0.95499       -1.00876
H         -0.96036       -0.04400       -2.17677
N         -2.89953       -3.25150       -0.67156
H         -0.26418       -3.09142       -0.12153
C         -3.73716       -0.62543       -1.59512
H         -3.89031       -3.16082       -0.87031
C          2.76651        0.72799        0.18083
O         -4.77388       -0.67985       -0.63784
H         -3.66773        0.36529       -2.05816
H         -4.01261       -1.36048       -2.36158
C         -4.95798        0.39368        0.16144
O         -4.41049        1.46578        0.01750
N         -5.81471        0.07128        1.15647
H         -6.40923       -0.75035        1.06346
O         -6.35363        1.10300        1.87385
H         -5.90021        1.09816        2.73019
H          3.44939        0.81416        1.03688
H          3.36506        0.80884       -0.73857
N          0.97201        1.93888       -1.01247
C          1.74790        1.86757        0.23486
C          2.37642        3.27742        0.25243
C          2.56085        3.57427       -1.23874
O          1.78828        2.57899       -1.93242
H          1.08140        1.78293        1.09649
C          3.63476        3.44178        1.09605
H          1.61389        3.95632        0.66182
H          2.20289        4.57563       -1.51695
H          3.60298        3.45264       -1.56942
O          4.01896        4.79551        1.20535
H          3.43406        3.08217        2.11680
H          4.45785        2.83246        0.68404
H          4.39043        5.07322        0.35945
O          3.31359       -1.54887        0.13687
S          3.11044       -3.20636        0.28602
O          1.73933       -3.44937       -0.20863
O          4.17534       -3.71171       -0.57113
O          3.27554       -3.47376        1.71635
H         -2.53810       -4.16535       -0.41505
H         -0.30726       -0.20281        3.53107
