59
ZTX_ketone_182_solv.log	Energy: -1435158.4924226
C          1.33533        1.37392        0.50969
N          1.47041        1.53908       -0.91793
C          0.85638        0.75405       -1.80115
C          0.15901        2.05186        1.25352
H          2.20891        1.84802        0.96845
N          0.82609        1.06994       -3.08108
H          1.18412        1.96688       -3.39655
H          2.04956        2.30009       -1.26228
N          0.22511       -0.35289       -1.35768
C         -0.99073       -1.19987        0.45347
C         -1.96838       -0.90708       -0.70541
C         -1.02525       -0.86055       -1.92063
O         -1.23934       -1.56177        1.56460
H         -1.39957       -0.19895       -2.70997
H         -0.89138       -1.87223       -2.32768
O          0.42076        2.70901        2.24100
C          1.33039       -0.10819        0.88804
C          0.45536       -0.94775       -0.05242
N          1.21698       -2.17653       -0.14129
C          2.49904       -1.96456        0.19678
N          2.63757       -0.75073        0.76972
H          0.96566       -0.22439        1.92122
N          3.47281       -2.82109        0.01957
H          0.94348       -2.92726       -0.77191
C          3.74543       -0.34408        1.59376
H          4.43979       -2.49174        0.12522
C         -2.70581        0.42998       -0.49471
O          4.61959        0.54673        0.92896
H          3.35148        0.21342        2.45082
H          4.29020       -1.22471        1.95629
C          5.61022        0.00910        0.19168
O          5.77827       -1.18532        0.02740
N          6.40426        0.98359       -0.29324
H          6.08953        1.95188       -0.29246
O          7.29503        0.64722       -1.27143
H          8.16232        0.59799       -0.84117
H         -3.34088        0.55422       -1.38309
H         -3.36429        0.31553        0.37623
N         -1.12710        1.65340        0.96056
C         -1.84275        1.67911       -0.32500
C         -2.65132        2.98296       -0.16262
C         -2.92504        3.02208        1.34288
O         -2.04933        2.03776        1.92150
H         -1.14214        1.81659       -1.15220
C         -3.89228        3.11122       -1.02368
H         -1.97434        3.80954       -0.42541
H         -2.71236        4.00524        1.78565
H         -3.95161        2.71987        1.59481
O         -4.42198        4.40194       -0.80790
H         -3.62157        2.95748       -2.08476
H         -4.62793        2.33471       -0.74968
H         -5.27120        4.45375       -1.26051
O         -2.89090       -1.93885       -0.97262
S         -3.85392       -2.73023        0.15481
O         -2.98726       -3.77298        0.71214
O         -4.28513       -1.71147        1.11962
O         -4.90633       -3.22632       -0.73151
H          3.28625       -3.70043       -0.45300
H          0.50117        0.40410       -3.77481
