59
ZTX_ketone_299_solv.log	Energy: -1435166.0336369
C          1.32696        1.46376        0.52408
N          1.44887        1.36522       -0.90990
C          0.77716        0.46433       -1.62591
C          0.19975        2.32529        1.14151
H          2.22825        1.97123        0.88100
N          0.75718        0.52664       -2.94254
H          1.16818        1.32114       -3.42405
H          2.13873        1.94966       -1.37597
N          0.06836       -0.48229       -0.97659
C         -1.12776       -0.97030        0.96603
C         -2.11200       -0.83900       -0.21213
C         -1.21590       -0.99292       -1.45705
O         -1.40423       -1.10621        2.12187
H         -1.57982       -0.38559       -2.29453
H         -1.13170       -2.03296       -1.79241
O          0.51541        3.16934        1.95502
C          1.26242        0.07353        1.15903
C          0.31008       -0.86862        0.41006
N          1.00873       -2.12948        0.50972
C          2.31440       -1.93226        0.72840
N          2.53088       -0.65110        1.08795
H          0.94696        0.15955        2.21123
N          3.24014       -2.85795        0.63707
H          0.59345       -2.98875        0.14984
C          3.75928       -0.08531        1.56610
H          4.21700       -2.56302        0.57088
C         -2.80022        0.53586       -0.17688
O          4.39310        0.68459        0.56144
H          3.53613        0.61452        2.37873
H          4.42352       -0.87229        1.94265
C          5.09500        0.00954       -0.36204
O          5.38737       -1.17129       -0.27392
N          5.41746        0.77244       -1.42499
H          6.13496        0.43405       -2.06286
O          5.22837        2.12598       -1.39639
H          4.44319        2.29772       -1.93868
H         -3.49029        0.54730       -1.03166
H         -3.40112        0.58537        0.74330
N         -1.11002        1.91616        0.98459
C         -1.88117        1.75503       -0.25922
C         -2.62720        3.10716       -0.30436
C         -2.79970        3.44850        1.17875
O         -1.97435        2.51040        1.89056
H         -1.21129        1.70493       -1.12167
C         -3.92622        3.14028       -1.09676
H         -1.93456        3.83127       -0.76082
H         -2.47898        4.47288        1.41570
H         -3.82857        3.29522        1.53376
O         -4.51218        4.42339       -1.06249
H         -3.73867        2.80686       -2.13343
H         -4.66252        2.45338       -0.65411
H         -3.90687        5.03822       -1.49471
O         -3.15564       -1.77795       -0.10538
S         -2.80876       -3.41287       -0.23378
O         -1.42193       -3.52793        0.26285
O         -3.82669       -4.00008        0.62840
O         -2.94826       -3.71090       -1.66113
H          2.98398       -3.77779        0.29054
H          0.38192       -0.23844       -3.49392
