59
ZTX_ketone_157_solv.log	Energy: -1435168.6043172
C         -1.34844        1.44998       -0.75987
N         -1.53863        1.41777        0.66970
C         -0.97440        0.48755        1.43857
C         -0.16932        2.25004       -1.35920
H         -2.21191        1.97513       -1.17792
N         -1.09008        0.54158        2.75158
H         -1.54415        1.33695        3.19117
H         -2.34130        1.93498        1.05134
N         -0.22793       -0.47668        0.85931
C          1.09518       -0.98542       -0.99424
C          1.99541       -0.85669        0.25245
C          1.01181       -0.99777        1.43238
O          1.45155       -1.12667       -2.12729
H          1.31919       -0.39293        2.29412
H          0.89441       -2.03663        1.76184
O         -0.41800        3.01300       -2.27238
C         -1.30334        0.03381       -1.33740
C         -0.37527       -0.88308       -0.53416
N         -1.05291       -2.15313       -0.65585
C         -2.35978       -1.96348       -0.87477
N         -2.58185       -0.68378       -1.23980
H         -0.97591        0.06786       -2.38843
N         -3.26469       -2.90789       -0.78194
H         -0.62799       -3.00969       -0.29812
C         -3.84374       -0.07107       -1.53896
H         -4.25316       -2.67622       -0.81184
C          2.69703        0.51122        0.26318
O         -4.26055        0.77024       -0.47595
H         -3.73266        0.59124       -2.40421
H         -4.59949       -0.83142       -1.76758
C         -4.70688        0.16633        0.63749
O         -5.02298       -1.00307        0.70544
N         -4.82186        1.03398        1.67620
H         -4.95273        0.62913        2.60089
O         -4.10043        2.20015        1.67697
H         -4.70054        2.90627        1.39072
H          3.31197        0.52759        1.17337
H          3.37479        0.54363       -0.60270
N          1.12055        1.88238       -1.05337
C          1.78622        1.73987        0.25056
C          2.54317        3.08387        0.32228
C          2.85066        3.37576       -1.14942
O          2.06324        2.43740       -1.90364
H          1.05046        1.71537        1.05869
C          3.76532        3.12945        1.22826
H          1.82062        3.82817        0.69158
H          2.57925        4.39997       -1.44180
H          3.90149        3.18617       -1.41031
O          4.36699        4.40570        1.21001
H          3.48017        2.82895        2.25269
H          4.53076        2.42297        0.87487
H          3.73475        5.03820        1.57281
O          3.03632       -1.80487        0.22253
S          2.67326       -3.43653        0.33736
O          1.33282       -3.55267       -0.27309
O          3.75699       -4.03451       -0.43187
O          2.69170       -3.72301        1.77397
H         -2.99487       -3.81837       -0.42144
H         -0.79637       -0.23796        3.33141
