59
ZTX_ketone_281_solv.log	Energy: -1435166.4293883
C          0.84203       -1.88709        0.80258
N          0.23857       -1.68291        2.09693
C         -0.52450       -0.62872        2.38051
C          0.04438       -2.60757       -0.31488
H          1.68187       -2.57352        0.94686
N         -1.22459       -0.58274        3.49739
H         -1.27058       -1.39498        4.10596
H          0.39150       -2.38211        2.81879
N         -0.60991        0.37516        1.48305
C         -0.59152        0.80729       -0.81378
C         -2.03006        0.95991       -0.28756
C         -1.84945        1.11460        1.23644
O         -0.23400        0.84010       -1.95467
H         -2.68241        0.66246        1.78856
H         -1.75470        2.16127        1.54710
O          0.60226       -3.51633       -0.89865
C          1.36217       -0.56772        0.23521
C          0.34217        0.56868        0.39532
N          1.20089        1.70527        0.61018
C          2.43391        1.33186        0.95405
N          2.53682       -0.01937        0.92509
H          1.59296       -0.69232       -0.83506
N          3.39794        2.15637        1.28740
H          0.85704        2.66198        0.51684
C          3.75354       -0.74988        1.12063
H          4.37231        1.83641        1.24000
C         -2.85038       -0.29208       -0.63954
O          4.49855       -0.90596       -0.07667
H          4.35493       -0.25932        1.89498
H          3.51424       -1.76311        1.45559
C          5.50380       -0.04721       -0.30353
O          5.79063        0.88922        0.42677
N          6.20566       -0.35210       -1.41213
H          6.84775        0.34767       -1.77824
O          5.71794       -1.24704       -2.32240
H          6.20542       -2.07209       -2.17645
H         -3.86156       -0.10381       -0.25409
H         -2.91708       -0.34813       -1.73606
N         -1.11254       -2.03917       -0.79255
C         -2.32848       -1.61866       -0.08455
C         -3.23590       -2.83331       -0.37514
C         -2.81800       -3.20893       -1.79367
O         -1.53547       -2.58710       -1.99610
H         -2.15765       -1.58083        0.99329
C         -4.73293       -2.63587       -0.19030
H         -2.91349       -3.62643        0.31635
H         -2.72228       -4.29484       -1.93158
H         -3.49754       -2.80024       -2.55631
O         -5.08042       -2.37413        1.15224
H         -5.10747       -1.84905       -0.86853
H         -5.24116       -3.56896       -0.47611
H         -4.83636       -1.46576        1.36704
O         -2.69254        2.02727       -0.92334
S         -2.15212        3.59649       -0.69049
O         -2.89174        4.07626        0.47902
O         -0.70102        3.44829       -0.45442
O         -2.51115        4.22194       -1.95663
H          3.20886        3.15452        1.28258
H         -1.68956        0.27181        3.78678
