59
ZTX_ketone_214_solv.log	Energy: -1435164.7939605
C         -1.66670        0.89378       -0.52144
N         -1.72509        0.84994        0.91966
C         -0.85851        0.13883        1.63923
C         -0.79702        1.96676       -1.22012
H         -2.66561        1.16947       -0.87117
N         -0.86698        0.20737        2.95685
H         -1.47375        0.87240        3.42725
H         -2.62261        1.09146        1.36067
N          0.06655       -0.60705        1.00076
C          1.30834       -0.82467       -0.96126
C          2.24972       -0.42158        0.19210
C          1.44450       -0.77001        1.46072
O          1.58787       -0.91165       -2.12098
H          1.65736       -0.07486        2.28188
H          1.63084       -1.79158        1.81223
O         -1.32110        2.63005       -2.09305
C         -1.28497       -0.46816       -1.10716
C         -0.09315       -1.08848       -0.36639
N         -0.42218       -2.49274       -0.41214
C         -1.73212       -2.67388       -0.60218
N         -2.31396       -1.50893       -0.95590
H         -1.03538       -0.35518       -2.17343
N         -2.33631       -3.83116       -0.47555
H          0.25501       -3.20840       -0.14491
C         -3.71435       -1.26267       -1.07588
H         -3.31811       -3.95045       -0.70160
C          2.56726        1.08127        0.11898
O         -4.15264       -0.68567        0.15069
H         -3.90116       -0.56977       -1.90698
H         -4.25939       -2.19430       -1.27146
C         -5.24543        0.08312        0.10789
O         -6.01342        0.13738       -0.82961
N         -5.43551        0.76318        1.27392
H         -6.09823        1.53520        1.23754
O         -4.36053        1.00620        2.09518
H         -4.42673        0.38141        2.83394
H          3.23739        1.28962        0.96413
H          3.12859        1.25823       -0.81047
N          0.56969        1.94333       -1.04928
C          1.36744        2.02739        0.18420
C          1.74124        3.52523        0.17176
C          1.80662        3.84589       -1.32546
O          1.24931        2.69889       -1.99069
H          0.74253        1.83788        1.06110
C          2.98937        3.90862        0.94209
H          0.89365        4.06630        0.61766
H          1.22643        4.74129       -1.59007
H          2.83644        3.95296       -1.69408
O          3.09441        5.31568        0.89685
H          2.90815        3.54272        1.98239
H          3.87746        3.43431        0.48836
H          3.94276        5.56298        1.28148
O          3.49536       -1.06822        0.07478
S          3.58499       -2.73293        0.24141
O          3.80062       -2.95365        1.67313
O          2.27549       -3.21738       -0.24222
O          4.71852       -3.05329       -0.61689
H         -1.80619       -4.64228       -0.17148
H         -0.32730       -0.44542        3.51612
