59
ZTX_ketone_221_solv.log	Energy: -1435165.2152578
C         -1.11202        1.62954        1.03687
N         -0.40054        1.47116        2.28242
C          0.50998        0.51956        2.47898
C         -0.47552        2.47749       -0.09210
H         -2.02706        2.18720        1.25691
N          1.28866        0.54114        3.54322
H          1.27184        1.33835        4.17248
H         -0.59219        2.12470        3.03703
N          0.65873       -0.44665        1.54828
C          0.53878       -0.83436       -0.75391
C          2.01711       -0.81721       -0.32651
C          1.95903       -1.02416        1.20080
O          0.11107       -0.89798       -1.86909
H          2.76761       -0.48683        1.71069
H          2.01199       -2.08122        1.48527
O         -1.14180        3.36613       -0.58145
C         -1.49043        0.27112        0.45088
C         -0.33336       -0.73344        0.51889
N         -1.03389       -1.96982        0.75503
C         -2.27764       -1.75645        1.18351
N         -2.55770       -0.43088        1.18054
H         -1.78340        0.39269       -0.60345
N         -3.09396       -2.71397        1.55306
H         -0.57152       -2.87454        0.65265
C         -3.88734        0.09398        1.32464
H         -4.06479       -2.53656        1.78744
C          2.65467        0.53283       -0.69469
O         -4.68415       -0.12461        0.17389
H         -4.39597       -0.41651        2.14948
H         -3.82959        1.16197        1.55956
C         -4.64375        0.81626       -0.78777
O         -3.97069        1.82709       -0.73190
N         -5.48041        0.53702       -1.81317
H         -5.34261        1.05692       -2.67748
O         -5.98337       -0.72691       -1.96927
H         -6.91235       -0.68011       -1.69811
H          3.70085        0.46743       -0.36657
H          2.65169        0.61208       -1.79188
N          0.68338        2.02041       -0.68788
C          2.00260        1.77435       -0.08473
C          2.70656        3.10628       -0.42991
C          2.10376        3.44742       -1.79118
O          0.93276        2.62106       -1.91388
H          1.92818        1.70688        1.00327
C          4.22784        3.11802       -0.41001
H          2.35536        3.83858        0.31261
H          1.81710        4.50562       -1.86932
H          2.76837        3.18466       -2.62737
O          4.75781        2.91490        0.88178
H          4.63060        2.38850       -1.13444
H          4.56478        4.11210       -0.74106
H          4.70241        1.97657        1.09662
O          2.75998       -1.78258       -1.03300
S          2.43276       -3.41117       -0.80706
O          3.31260       -3.81798        0.29102
O          0.99670       -3.44765       -0.46065
O          2.76812       -3.96314       -2.11332
H         -2.76863       -3.67626        1.55069
H          1.86933       -0.25638        3.78164
