59
ZTX_ketone_296_solv.log	Energy: -1435159.6307499
C          1.59491        1.01300        0.90038
N          1.87275        1.24556       -0.49704
C          1.23836        0.58441       -1.46499
C          0.48193        1.82044        1.60950
H          2.48440        1.33581        1.44924
N          1.41343        0.90960       -2.73047
H          1.96364        1.72775       -2.97510
H          2.75690        1.71618       -0.72872
N          0.36943       -0.38966       -1.12318
C         -1.07611       -1.17653        0.53283
C         -1.91575       -0.66459       -0.66046
C         -0.88965       -0.66327       -1.80836
O         -1.45714       -1.57404        1.59329
H         -1.10288        0.11097       -2.55483
H         -0.87373       -1.64659       -2.29829
O          0.77227        2.38694        2.64468
C          1.36548       -0.47742        1.17171
C          0.42064       -1.10633        0.13867
N          0.99627       -2.42855       -0.01536
C          2.30291       -2.39901        0.30409
N          2.57902       -1.28466        1.00549
H          0.96317       -0.62183        2.18689
N          3.15442       -3.34667       -0.00586
H          0.64036       -3.07455       -0.71699
C          3.83801       -0.90396        1.58215
H          4.15514       -3.17526        0.07441
C         -2.46687        0.74865       -0.39401
O          4.46573        0.09359        0.79576
H          3.65820       -0.43777        2.55704
H          4.48531       -1.77803        1.71854
C          5.04885       -0.30562       -0.34559
O          5.33866       -1.45676       -0.60330
N          5.33219        0.73941       -1.16328
H          5.59403        0.51648       -2.12164
O          4.63357        1.91240       -1.03510
H          5.20496        2.53370       -0.55788
H         -3.01877        1.02230       -1.30372
H         -3.18424        0.68646        0.43476
N         -0.82622        1.64281        1.21922
C         -1.43239        1.83359       -0.10632
C         -2.02752        3.24941        0.06576
C         -2.39974        3.27705        1.54827
O         -1.74240        2.13930        2.13410
H         -0.66002        1.88444       -0.87681
C         -3.16917        3.60182       -0.86424
H         -1.20391        3.95642       -0.11425
H         -2.06078        4.19493        2.04896
H         -3.47728        3.14163        1.71987
O         -2.70537        3.48607       -2.19256
H         -4.03035        2.93586       -0.67783
H         -3.50265        4.63152       -0.64179
H         -3.45375        3.62280       -2.78434
O         -2.94979       -1.53356       -1.06383
S         -4.09828       -2.24046       -0.06241
O         -5.15000       -2.50492       -1.04398
O         -3.44008       -3.44182        0.46008
O         -4.43903       -1.23698        0.95325
H          2.84344       -4.11981       -0.58690
H          1.05765        0.31743       -3.47417
