59
ZTX_ketone_53_solv.log	Energy: -1435169.1122046
C          1.19203       -1.65262       -0.27384
N          1.24664       -1.48519        1.15835
C          0.57649       -0.52980        1.79925
C          0.07185       -2.52005       -0.89840
H          2.09653       -2.19726       -0.56353
N          0.48772       -0.53020        3.11516
H          0.83902       -1.31572        3.65478
H          1.83057       -2.11966        1.69654
N         -0.05811        0.41748        1.07688
C         -1.14953        0.83790       -0.94311
C         -2.19146        0.79126        0.18812
C         -1.35277        0.98053        1.46746
O         -1.36486        0.91961       -2.11716
H         -1.77367        0.42242        2.31240
H         -1.25807        2.03313        1.75780
O          0.40413       -3.41534       -1.64905
C          1.19725       -0.29663       -0.97929
C          0.25728        0.71816       -0.31457
N          1.00514        1.94458       -0.45402
C          2.30042        1.70105       -0.67470
N          2.49146        0.38565       -0.92546
H          0.90310       -0.42673       -2.03350
N          3.24917        2.60544       -0.67473
H          0.60643        2.84102       -0.17644
C          3.65617       -0.17446       -1.55735
H          4.22552        2.29169       -0.64756
C         -2.92073       -0.56365        0.17266
O          4.49072       -0.86342       -0.64626
H          3.33170       -0.92697       -2.28456
H          4.21933        0.60850       -2.07979
C          5.39755       -0.13418        0.03090
O          5.56295        1.06320       -0.10778
N          6.06101       -0.92091        0.90397
H          6.05055       -1.93183        0.78002
O          7.19449       -0.41078        1.47131
H          6.96037       -0.18873        2.38514
H         -3.66933       -0.52088        0.97381
H         -3.46060       -0.63964       -0.78204
N         -1.23304       -2.07817       -0.82175
C         -2.04920       -1.80313        0.37264
C         -2.81587       -3.14294        0.49062
C         -2.95568       -3.58141       -0.96955
O         -2.07744       -2.72074       -1.71508
H         -1.41399       -1.71514        1.25706
C         -4.10376       -3.15232        1.29592
H         -2.12703       -3.83172        1.00084
H         -2.65951       -4.62965       -1.11973
H         -3.96635       -3.42032       -1.36502
O         -5.13573       -2.48804        0.60121
H         -4.37736       -4.20478        1.48940
H         -3.90963       -2.68142        2.27690
H         -5.92595       -2.50988        1.15229
O         -3.19899        1.75480       -0.01182
S         -2.80361        3.38256        0.03707
O         -3.75766        3.94782       -0.90913
O         -3.00256        3.77226        1.43519
O         -1.39099        3.42415       -0.39454
H          3.02251        3.56525       -0.43197
H          0.11108        0.27219        3.60964
