59
ZTX_ketone_193_solv.log	Energy: -1435167.0810004
C          1.13095       -1.62062        1.03800
N          0.42289       -1.46317        2.28571
C         -0.49296       -0.51680        2.48312
C          0.49948       -2.48340       -0.08265
H          2.05219       -2.16801        1.25750
N         -1.26413       -0.53787        3.55266
H         -1.24019       -1.33287        4.18445
H          0.62487       -2.11045        3.04299
N         -0.65485        0.44341        1.54823
C         -0.54913        0.81951       -0.75657
C         -2.02513        0.79113       -0.32269
C         -1.96231        1.00680        1.20340
O         -0.12635        0.87770       -1.87405
H         -2.76316        0.46452        1.72010
H         -2.02387        2.06487        1.48234
O          1.17566       -3.36695       -0.56859
C          1.49518       -0.26159        0.44492
C          0.32963        0.73308        0.51256
N          1.02032        1.97674        0.73932
C          2.26607        1.77596        1.16789
N          2.55793        0.45308        1.16940
H          1.78668       -0.38529       -0.60953
N          3.07435        2.74190        1.53300
H          0.54905        2.87671        0.63627
C          3.89219       -0.05871        1.31762
H          4.04559        2.57289        1.77160
C         -2.65074       -0.56700       -0.68068
O          4.68921        0.16205        0.16740
H          4.39485        0.46079        2.14046
H          3.84447       -1.12606        1.55780
C          4.65405       -0.78040       -0.79280
O          3.98380       -1.79315       -0.73688
N          5.49232       -0.50033       -1.81674
H          5.35775       -1.02154       -2.68077
O          5.99315        0.76447       -1.97294
H          6.92159        0.71974       -1.69958
H         -3.69281       -0.52221       -0.33725
H         -2.65332       -0.65384       -1.77724
N         -0.67069       -2.05239       -0.67390
C         -1.98588       -1.79803       -0.06532
C         -2.69997       -3.13277       -0.38321
C         -2.05755       -3.55231       -1.70686
O         -0.93017       -2.67769       -1.88351
H         -1.90131       -1.71630        1.02032
C         -4.21268       -3.08103       -0.42522
H         -2.40082       -3.83942        0.40499
H         -1.71583       -4.59700       -1.69299
H         -2.71698       -3.39281       -2.57168
O         -4.67556       -2.63955        0.83314
H         -4.54739       -2.41052       -1.23684
H         -4.59339       -4.09072       -0.66293
H         -5.63274       -2.53735        0.78095
O         -2.78002        1.74637       -1.03058
S         -2.46426        3.37852       -0.81610
O         -3.34257        3.78584        0.28303
O         -1.02706        3.42810       -0.47577
O         -2.80875        3.92030       -2.12432
H          2.73980        3.70102        1.52991
H         -1.85185        0.25517        3.78867
