59
ZTX_ketone_194_solv.log	Energy: -1435168.3993538
C         -1.44504        1.44254       -0.69487
N         -1.63562        1.35331        0.73230
C         -1.00832        0.44142        1.47393
C         -0.31988        2.33820       -1.26259
H         -2.33900        1.92469       -1.09978
N         -1.12219        0.45305        2.78818
H         -1.61967        1.20862        3.25018
H         -2.47595        1.79597        1.12579
N         -0.20428       -0.45690        0.86652
C          1.13977       -0.84070       -1.00165
C          2.03593       -0.68763        0.24429
C          1.06797       -0.91411        1.42388
O          1.49882       -0.93442       -2.13897
H          1.33989       -0.31022        2.29803
H          1.01531       -1.96509        1.73109
O         -0.62027        3.13112       -2.13372
C         -1.30981        0.05165       -1.31724
C         -0.33261       -0.83390       -0.53710
N         -0.93841       -2.13615       -0.69362
C         -2.25151       -2.01639       -0.92209
N         -2.54437       -0.74241       -1.25520
H         -0.97905        0.14084       -2.36395
N         -3.10205       -3.01355       -0.86532
H         -0.46650       -2.97722       -0.35936
C         -3.83599       -0.19750       -1.55937
H         -4.10207       -2.83333       -0.88206
C          2.65954        0.71792        0.27862
O         -4.32617        0.57292       -0.47467
H         -3.74880        0.50271       -2.39698
H         -4.53692       -0.99400       -1.83388
C         -4.77389       -0.10196        0.59676
O         -5.04502       -1.28501        0.59990
N         -4.94496        0.70846        1.67249
H         -5.08306        0.25609        2.57383
O         -4.27197        1.90113        1.74370
H         -4.89939        2.59658        1.49218
H          3.29262        0.75571        1.17376
H          3.31796        0.80840       -0.59725
N          0.99198        2.02822       -0.98469
C          1.67781        1.88904        0.31034
C          2.32310        3.28969        0.42146
C          2.62647        3.63202       -1.03883
O          1.89099        2.67435       -1.81982
H          0.95231        1.79353        1.12250
C          3.47927        3.46582        1.40328
H          1.52100        3.95510        0.77467
H          2.30551        4.64945       -1.30442
H          3.68420        3.50094       -1.30570
O          4.67255        2.79840        1.05929
H          3.65855        4.54733        1.52969
H          3.16414        3.07689        2.38354
H          5.10436        3.28389        0.34733
O          3.12975       -1.57367        0.18865
S          2.86383       -3.22612        0.25862
O          1.52719       -3.40509       -0.34530
O          3.97473       -3.73729       -0.53463
O          2.91112       -3.55216        1.68619
H         -2.78250       -3.91621       -0.52615
H         -0.77536       -0.32009        3.34645
