59
ZTX_ketone_159_solv.log	Energy: -1435163.1722313
C         -1.09750        1.44209        1.06152
N         -0.43619        1.24253        2.32821
C          0.48398        0.30031        2.52451
C         -0.44847        2.36404        0.00116
H         -2.03951        1.95872        1.26972
N          1.19467        0.27314        3.63533
H          1.11726        1.02743        4.31110
H         -0.69771        1.83791        3.10943
N          0.71466       -0.60299        1.54781
C          0.73818       -0.83687       -0.77896
C          2.18915       -0.79801       -0.26440
C          2.05113       -1.11612        1.23800
O          0.37628       -0.84072       -1.91882
H          2.81175       -0.59728        1.83276
H          2.11980       -2.18939        1.44911
O         -1.14482        3.22263       -0.50213
C         -1.39966        0.10473        0.39067
C         -0.20674       -0.85546        0.44620
N         -0.86770       -2.13170        0.56208
C         -2.13411       -1.99358        0.95137
N         -2.45815       -0.67818        1.04487
H         -1.67424        0.27283       -0.66320
N         -2.93880       -2.99598        1.20478
H         -0.36286       -3.00924        0.42616
C         -3.80739       -0.20917        1.07366
H         -3.91246       -2.85189        1.45086
C          2.79789        0.59463       -0.50058
O         -4.33351       -0.29811       -0.24361
H         -4.40497       -0.81406        1.76946
H         -3.82807        0.82948        1.42401
C         -5.45870        0.39828       -0.48467
O         -6.02103        1.09369        0.33309
N         -5.88290        0.15625       -1.75154
H         -5.21670       -0.19357       -2.43761
O         -6.82517        1.01246       -2.25629
H         -7.65916        0.51973       -2.25721
H          3.81985        0.55142       -0.09990
H          2.86741        0.74329       -1.58832
N          0.76910        2.00513       -0.53569
C          2.05859        1.77428        0.13337
C          2.73786        3.14105       -0.09794
C          2.17189        3.56344       -1.45749
O          1.06564        2.67929       -1.70998
H          1.91704        1.64401        1.20913
C          4.25856        3.16056       -0.00707
H          2.35233        3.81913        0.67762
H          1.81779        4.60392       -1.46232
H          2.88816        3.41593       -2.27927
O          4.76750        4.47650       -0.03984
H          4.56891        2.72124        0.95311
H          4.70053        2.54814       -0.81226
H          4.66525        4.81750       -0.93646
O          3.00655       -1.68618       -0.98982
S          2.72764       -3.33651       -0.89531
O          3.15350       -3.78362       -2.21534
O          3.55957       -3.79119        0.22102
O          1.27683       -3.44444       -0.63596
H         -2.58865       -3.94798        1.14977
H          1.77458       -0.52817        3.86356
