59
ZTX_ketone_170_solv.log	Energy: -1435166.2966198
C         -1.22016        1.35045        1.19987
N         -0.52681        1.11090        2.44240
C          0.41888        0.18325        2.57916
C         -0.60389        2.33018        0.17227
H         -2.16542        1.84130        1.44776
N          1.16532        0.14068        3.66620
H          1.09407        0.87533        4.36393
H         -0.77003        1.68013        3.24859
N          0.63400       -0.68679        1.56921
C          0.59437       -0.84195       -0.76490
C          2.05863       -0.79923       -0.29122
C          1.96772       -1.17040        1.20311
O          0.19945       -0.81372       -1.89356
H          2.73853       -0.66139        1.79332
H          2.05621       -2.24922        1.37494
O         -1.30433        3.22598       -0.25214
C         -1.51917        0.03550        0.48542
C         -0.31483       -0.91346        0.48450
N         -0.95898       -2.19979        0.57469
C         -2.21534       -2.08737        1.00731
N         -2.55607       -0.78235        1.13323
H         -1.80515        0.23671       -0.55889
N         -2.99528       -3.10844        1.26905
H         -0.44958       -3.06667        0.39684
C         -3.90830       -0.33559        1.32399
H         -3.96916       -2.98713        1.52599
C          2.64110        0.60959       -0.49774
O         -4.69725       -0.46814        0.15671
H         -4.39251       -0.94899        2.09120
H         -3.89773        0.70394        1.66887
C         -4.68339        0.56441       -0.71665
O         -4.05453        1.58828       -0.55904
N         -5.43556        0.25228       -1.79635
H         -6.12391       -0.49523       -1.73378
O         -5.75849        1.27293       -2.64719
H         -5.18546        1.16703       -3.42148
H          3.67487        0.56781       -0.12844
H          2.67582        0.79706       -1.58120
N          0.59318        1.99192       -0.42656
C          1.90466        1.75466        0.19824
C          2.55920        3.13850        0.00222
C          1.94086        3.61926       -1.31300
O          0.84870        2.72075       -1.57794
H          1.79461        1.58090        1.27142
C          4.07989        3.18106        0.02494
H          2.19268        3.77412        0.82351
H          1.56080        4.64860       -1.24946
H          2.63250        3.53534       -2.16332
O          4.55590        4.49898       -0.14206
H          4.44940        2.73173        0.96446
H          4.49296        2.59494       -0.80933
H          4.24524        5.02379        0.60616
O          2.86688       -1.65048       -1.06928
S          2.61314       -3.30662       -1.02308
O          1.17190       -3.44504       -0.72807
O          3.00936       -3.70380       -2.36823
O          3.48244       -3.78580        0.05400
H         -2.62945       -4.05270        1.19101
H          1.77018       -0.65279        3.85343
