59
ZTX_ketone_183_solv.log	Energy: -1435168.5309928
C          1.19109       -1.65544       -0.27561
N          1.24352       -1.49097        1.15690
C          0.57237       -0.53683        1.79862
C          0.06950       -2.51784       -0.90418
H          2.09509       -2.20098       -0.56516
N          0.48060       -0.54057        3.11436
H          0.83056       -1.32754        3.65272
H          1.82492       -2.12781        1.69500
N         -0.05932        0.41300        1.07718
C         -1.14801        0.83733       -0.94348
C         -2.19111        0.79151        0.18698
C         -1.35297        0.97861        1.46708
O         -1.36227        0.92154       -2.11754
H         -1.77575        0.42118        2.31146
H         -1.25609        2.03093        1.75779
O          0.39981       -3.41181       -1.65715
C          1.19876       -0.29809       -0.97846
C          0.25819        0.71583       -0.31344
N          1.00679        1.94216       -0.44972
C          2.30217        1.69861       -0.66965
N          2.49321        0.38344       -0.92175
H          0.90608       -0.42593       -2.03339
N          3.25120        2.60270       -0.66787
H          0.60752        2.83857       -0.17269
C          3.65791       -0.17571       -1.55454
H          4.22745        2.28863       -0.64082
C         -2.92327       -0.56191        0.17188
O          4.49260       -0.86602       -0.64465
H          3.33335       -0.92710       -2.28288
H          4.22101        0.60809       -2.07577
C          5.40024       -0.13777        0.03252
O          5.56532        1.05985       -0.10451
N          6.06499       -0.92577        0.90341
H          6.05432       -1.93653        0.77821
O          7.19890       -0.41633        1.47046
H          6.96556       -0.19544        2.38478
H         -3.66795       -0.51875        0.97625
H         -3.46792       -0.63333       -0.78072
N         -1.23331       -2.06879       -0.82951
C         -2.05328       -1.80387        0.36485
C         -2.82247       -3.14137        0.46297
C         -2.99280       -3.53306       -1.00501
O         -2.07498       -2.70018       -1.73470
H         -1.42110       -1.72548        1.25269
C         -4.08804       -3.17202        1.31687
H         -2.12206       -3.84873        0.93228
H         -2.75464       -4.59085       -1.18639
H         -3.99392       -3.30946       -1.39876
O         -5.18015       -2.44252        0.80392
H         -4.36543       -4.22717        1.48101
H         -3.85010       -2.74614        2.30370
H         -5.58609       -2.95266        0.09378
O         -3.19670        1.75703       -0.01345
S         -2.79914        3.38415        0.03785
O         -2.99843        3.77244        1.43630
O         -1.38621        3.42451       -0.39288
O         -3.75182        3.95178       -0.90831
H          3.02467        3.56232       -0.42425
H          0.10457        0.26128        3.61016
