59
ZTX_ketone_163_solv.log	Energy: -1435158.0308015
C          0.89546       -2.10132        0.12818
N          0.41631       -2.44103        1.44680
C         -0.26537       -1.59184        2.21390
C         -0.03402       -2.29109       -1.09485
H          1.71254       -2.79176       -0.10031
N         -0.87723       -2.00834        3.30501
H         -0.92505       -2.99985        3.52101
H          0.57489       -3.38485        1.78893
N         -0.35541       -0.29994        1.83459
C         -0.51130        1.06137       -0.06495
C         -1.90113        0.98419        0.60139
C         -1.54775        0.52573        2.02881
O         -0.20072        1.60401       -1.08316
H         -2.35649       -0.05339        2.48884
H         -1.32343        1.39860        2.65677
O          0.40804       -2.89948       -2.04911
C          1.43059       -0.67031        0.09335
C          0.50558        0.30811        0.83532
N          1.45994        1.22381        1.41316
C          2.69074        0.70092        1.43973
N          2.70791       -0.48564        0.79166
H          1.53622       -0.33976       -0.95219
N          3.72243        1.26164        2.02257
H          1.18909        2.04666        1.94629
C          3.89943       -1.20979        0.45234
H          4.67086        0.97433        1.75497
C         -2.82008       -0.02309       -0.11668
O          4.50635       -0.74241       -0.73943
H          4.60454       -1.16763        1.29088
H          3.63926       -2.25590        0.26807
C          5.54118        0.11556       -0.62365
O          5.96177        0.55076        0.43276
N          6.00547        0.44104       -1.84494
H          5.76431       -0.12396       -2.65689
O          7.18908        1.11660       -1.91670
H          6.96093        2.04161       -2.09625
H         -3.75388       -0.03048        0.46192
H         -3.04073        0.37388       -1.11576
N         -1.18578       -1.54222       -1.17475
C         -2.31242       -1.45733       -0.23356
C         -3.30807       -2.42848       -0.91008
C         -2.98249       -2.26416       -2.39568
O         -1.74597       -1.53140       -2.44243
H         -2.04129       -1.87966        0.73647
C         -4.76936       -2.21667       -0.57418
H         -3.02321       -3.44085       -0.58687
H         -2.85752       -3.22971       -2.90593
H         -3.72682       -1.65874       -2.93226
O         -4.92475       -2.35250        0.82223
H         -5.09919       -1.22161       -0.92246
H         -5.36962       -2.96595       -1.12133
H         -5.83700       -2.13500        1.04507
O         -2.54887        2.22806        0.74303
S         -2.79110        3.36625       -0.47033
O         -1.56407        4.16850       -0.46870
O         -3.02870        2.61281       -1.70725
O         -3.96445        4.05404        0.06802
H          3.59795        2.16255        2.47548
H         -1.26189       -1.34662        3.97160
