59
ZTX_ketone_314_solv.log	Energy: -1435156.5213212
C          1.36987       -1.69760        0.71878
N          0.77855       -1.97492        2.00690
C         -0.12980       -1.18490        2.57752
C          0.65416       -2.19211       -0.56118
H          2.31860       -2.24060        0.67706
N         -0.79953       -1.58556        3.64045
H         -0.72239       -2.54478        3.96551
H          1.05238       -2.82663        2.48907
N         -0.38273        0.02329        2.02988
C         -0.51165        1.11416       -0.03994
C         -1.94489        0.86622        0.47559
C         -1.71208        0.63555        1.98049
O         -0.16403        1.57626       -1.08543
H         -2.46693       -0.02661        2.42014
H         -1.72040        1.59756        2.51053
O          1.29587       -2.84322       -1.35947
C          1.64892       -0.20432        0.55588
C          0.48782        0.66356        1.05988
N          1.19441        1.79653        1.61124
C          2.48161        1.50962        1.83423
N          2.78421        0.28366        1.35095
H          1.81945        0.02514       -0.50721
N          3.31547        2.32436        2.43282
H          0.72103        2.59593        2.02655
C          4.13408       -0.15888        1.12260
H          4.29822        2.09875        2.54694
C         -2.57685       -0.35962       -0.21158
O          4.73965        0.50534        0.03067
H          4.74897        0.06252        2.00113
H          4.13181       -1.24274        0.96521
C          4.61040       -0.06349       -1.19050
O          3.98313       -1.07586       -1.41282
N          5.32315        0.64660       -2.09458
H          5.59254        1.60511       -1.88057
O          5.07726        0.39385       -3.41605
H          5.83870       -0.11183       -3.73772
H         -3.56346       -0.48370        0.25540
H         -2.72865       -0.10948       -1.26974
N         -0.57224       -1.64504       -0.87714
C         -1.81892       -1.67940       -0.09699
C         -2.52969       -2.87812       -0.76769
C         -2.03428       -2.79684       -2.21250
O         -0.94257       -1.86113       -2.19544
H         -1.61688       -1.95092        0.94116
C         -4.03795       -2.91087       -0.63799
H         -2.12284       -3.78479       -0.29563
H         -1.68145       -3.76748       -2.58888
H         -2.78814       -2.38837       -2.90053
O         -4.36344       -2.94362        0.73540
H         -4.48094       -2.03072       -1.13724
H         -4.41757       -3.80569       -1.16355
H         -5.32242       -2.88829        0.81849
O         -2.80734        1.97774        0.38574
S         -3.03877        2.95007       -0.96485
O         -1.94284        3.92210       -0.91024
O         -3.00871        2.05727       -2.12965
O         -4.35488        3.50198       -0.64409
H          2.97701        3.20900        2.80093
H         -1.37655       -0.93866        4.16853
