59
ZTX_ketone_294_solv.log	Energy: -1435157.4042772
C          1.02535       -2.01594        0.25019
N          0.54789       -2.32156        1.57755
C         -0.17213       -1.46943        2.30525
C          0.11599       -2.29460       -0.97107
H          1.87391       -2.67856        0.05590
N         -0.76902       -1.86347        3.41286
H         -0.77519       -2.84580        3.67181
H          0.74921       -3.23987        1.96380
N         -0.31661       -0.20028        1.86954
C         -0.52297        1.06225       -0.09369
C         -1.91098        0.95818        0.57374
C         -1.54670        0.57717        2.02093
O         -0.23317        1.56133       -1.13985
H         -2.33114       -0.01926        2.50054
H         -1.36776        1.48541        2.61233
O          0.59156       -2.92083       -1.89706
C          1.49738       -0.56468        0.15896
C          0.52120        0.40216        0.84723
N          1.42565        1.39011        1.38648
C          2.67947        0.92729        1.44600
N          2.75582       -0.29032        0.86191
H          1.60192       -0.27557       -0.89896
N          3.68239        1.56398        1.99947
H          1.11185        2.22589        1.87411
C          3.98293       -0.97439        0.57352
H          4.64517        1.30096        1.75788
C         -2.78047       -0.11668       -0.10580
O          4.58536       -0.53127       -0.63147
H          4.67302       -0.85915        1.41746
H          3.77381       -2.03874        0.43387
C          5.59356        0.34982       -0.53520
O          5.98750        0.83559        0.51448
N          6.16436        0.61806       -1.72456
H          6.79005        1.41890       -1.78416
O          5.55695        0.24647       -2.89047
H          6.04425       -0.52668       -3.21379
H         -3.71600       -0.14484        0.46938
H         -3.01381        0.23115       -1.12031
N         -1.06467       -1.59704       -1.08943
C         -2.20643       -1.52953       -0.16526
C         -3.14800       -2.56691       -0.82027
C         -2.81746       -2.42762       -2.30702
O         -1.60782       -1.65157       -2.36356
H         -1.92881       -1.90485        0.82209
C         -4.62084       -2.41847       -0.50206
H         -2.81607       -3.55446       -0.46638
H         -2.65343       -3.40002       -2.79258
H         -3.57983       -1.86346       -2.86306
O         -4.78270       -2.52379        0.89624
H         -4.99607       -1.45091       -0.88047
H         -5.17811       -3.21116       -1.03330
H         -5.70755       -2.34963        1.10484
O         -2.61438        2.17671        0.66085
S         -2.87380        3.26791       -0.59059
O         -1.66315        4.09482       -0.61255
O         -3.09183        2.46871       -1.80226
O         -4.06280        3.94859       -0.07854
H          3.51772        2.47749        2.41232
H         -1.18058       -1.18966        4.05035
