59
ZTX_ketone_126_solv.log	Energy: -1435165.0004802
C          1.66484       -0.83764        0.92909
N          1.01995       -0.83695        2.21696
C         -0.11798       -0.18983        2.46247
C          1.29241       -1.87923       -0.14959
H          2.72193       -1.06159        1.10610
N         -0.75762       -0.36806        3.60128
H         -0.44505       -1.07737        4.25792
H          1.46642       -1.34030        2.97917
N         -0.63483        0.61570        1.50890
C         -0.79874        0.74101       -0.81952
C         -2.14932        0.28154       -0.24811
C         -2.07354        0.68473        1.23753
O         -0.47046        0.76010       -1.96986
H         -2.62355       -0.01779        1.87431
H         -2.46017        1.69393        1.41828
O          2.22144       -2.28846       -0.84262
C          1.54237        0.52418        0.25434
C          0.13102        1.09798        0.36284
N          0.40417        2.51002        0.42337
C          1.68126        2.75252        0.73353
N          2.36756        1.58970        0.82891
H          1.79804        0.41955       -0.81163
N          2.16405        3.95578        0.92810
H         -0.33278        3.20579        0.30460
C          3.80230        1.44425        0.80846
H          3.14236        4.11188        1.14585
C         -2.30999       -1.23813       -0.42683
O          4.15410        0.96056       -0.47200
H          4.28768        2.40778        1.00259
H          4.12160        0.73107        1.57951
C          5.02531       -0.06601       -0.53074
O          5.84529       -0.31005        0.33173
N          4.91880       -0.75583       -1.68870
H          5.46155       -1.61363       -1.76671
O          3.78236       -0.69134       -2.45026
H          3.12615       -1.25545       -1.98449
H         -3.29275       -1.47739        0.00005
H         -2.34869       -1.44011       -1.50741
N          0.00953       -2.14683       -0.47264
C         -1.27698       -2.15772        0.23314
C         -1.62169       -3.65972        0.09765
C         -1.02404       -4.01783       -1.26366
O         -0.14141       -2.93194       -1.59981
H         -1.13658       -1.93854        1.29342
C         -3.08495       -4.02252        0.23904
H         -1.05864       -4.17740        0.88799
H         -0.45245       -4.95575       -1.23764
H         -1.77961       -4.06784       -2.06040
O         -3.52676       -3.58081        1.50452
H         -3.67205       -3.56484       -0.57676
H         -3.18661       -5.11766        0.13408
H         -4.47651       -3.73545        1.56219
O         -3.22355        0.84563       -0.96296
S         -3.44138        2.50791       -0.94165
O         -4.32304        2.75509        0.20158
O         -2.07565        3.04471       -0.76369
O         -4.03464        2.74549       -2.25122
H          1.54825        4.76081        0.86218
H         -1.54283        0.22178        3.85872
