59
ZTX_ketone_97_solv.log	Energy: -1435165.0223865
C          1.36734       -1.51982       -0.81019
N          1.59930       -1.44384        0.61182
C          1.04820       -0.51167        1.38885
C          0.18843       -2.36596       -1.34660
H          2.23037       -2.03129       -1.24599
N          1.20071       -0.54977        2.69746
H          1.71058       -1.31395        3.13155
H          2.27988       -2.07959        1.01933
N          0.27518        0.43735        0.81880
C         -1.14484        0.83372       -0.99605
C         -1.98829        0.71871        0.28858
C         -0.96369        0.93149        1.42254
O         -1.54906        0.92205       -2.11848
H         -1.21688        0.34538        2.31397
H         -0.87160        1.98418        1.71388
O          0.42473       -3.13448       -2.25899
C          1.26295       -0.11972       -1.41454
C          0.34568        0.79417       -0.59518
N          0.96890        2.07837       -0.79740
C          2.26117        1.93408       -1.11007
N          2.52003        0.64277       -1.40703
H          0.88181       -0.19383       -2.44529
N          3.10929        2.93229       -1.16125
H          0.51320        2.94136       -0.49795
C          3.80003        0.07208       -1.71221
H          4.09727        2.77742       -1.33028
C         -2.64917       -0.66851        0.36006
O          4.28175       -0.75398       -0.66560
H          3.71184       -0.59399       -2.57754
H          4.52021        0.86419       -1.94813
C          4.56018       -0.16697        0.51673
O          4.47139        1.02094        0.73255
N          4.98243       -1.10581        1.40063
H          4.76233       -2.08500        1.22418
O          4.97273       -0.74895        2.72230
H          5.90086       -0.63245        2.97491
H         -3.23769       -0.68744        1.28604
H         -3.35241       -0.73970       -0.48186
N         -1.09611       -2.04426       -0.98317
C         -1.70477       -1.87080        0.34456
C         -2.38913       -3.24942        0.50364
C         -2.77223       -3.60069       -0.93659
O         -2.05883       -2.66453       -1.76398
H         -0.93355       -1.79546        1.11480
C         -3.50982       -3.37169        1.52160
H         -1.59484       -3.93421        0.83426
H         -2.48213       -4.62616       -1.20689
H         -3.84022       -3.45057       -1.13861
O         -4.67590       -2.71996        1.06897
H         -3.70290       -4.44644        1.68786
H         -3.16021       -2.95236        2.48255
H         -5.35213       -2.81491        1.74913
O         -3.05902        1.63399        0.27332
S         -2.74723        3.27976        0.30371
O         -3.87995        3.80848       -0.44550
O         -2.71906        3.62840        1.72631
O         -1.43669        3.41300       -0.36545
H          2.81348        3.85176       -0.84729
H          0.91110        0.23351        3.27463
