59
ZTX_ketone_89_solv.log	Energy: -1435165.8898305
C          1.07186       -1.57413        1.08602
N          0.43383       -1.31867        2.35484
C         -0.41633       -0.31181        2.54926
C          0.33650       -2.43950        0.03289
H          1.96631       -2.17054        1.28892
N         -1.13901       -0.24508        3.65112
H         -1.12679       -1.01287        4.31621
H          0.63680       -1.94201        3.13149
N         -0.56168        0.61686        1.58029
C         -0.54365        0.88022       -0.74301
C         -1.99680        0.96522       -0.24154
C         -1.84498        1.24995        1.26705
O         -0.17236        0.86538       -1.87992
H         -2.65263        0.79129        1.84949
H         -1.82069        2.32248        1.49172
O          0.92991       -3.38591       -0.44119
C          1.48983       -0.26625        0.41863
C          0.38806        0.79885        0.48855
N          1.15949        2.00892        0.62274
C          2.41043        1.75225        1.00439
N          2.61777        0.41577        1.07037
H          1.73125       -0.45003       -0.64013
N          3.29983        2.67792        1.27339
H          0.73972        2.92907        0.48187
C          3.91909       -0.16785        1.23141
H          4.27060        2.45292        1.46619
C         -2.72213       -0.36521       -0.50542
O          4.70479       -0.08114        0.05626
H          4.46783        0.38110        2.00422
H          3.81168       -1.20917        1.55288
C          4.57576       -1.07745       -0.83879
O          3.82594       -2.02551       -0.70634
N          5.34219       -0.88437       -1.93562
H          5.47933       -1.68133       -2.55398
O          6.36732        0.02282       -1.91488
H          6.06063        0.78390       -2.43047
H         -3.74246       -0.23707       -0.11908
H         -2.78601       -0.49622       -1.59580
N         -0.82710       -1.95237       -0.53035
C         -2.09937       -1.61045        0.12629
C         -2.89550       -2.91083       -0.11411
C         -2.33515       -3.40848       -1.45049
O         -1.17159       -2.60175       -1.70533
H         -1.95590       -1.49609        1.20359
C         -4.40608       -2.78672       -0.07935
H         -2.60098       -3.61186        0.68087
H         -2.04641       -4.46857       -1.41741
H         -3.02451       -3.24112       -2.29009
O         -4.93566       -4.08987       -0.19913
H         -4.71458       -2.31109        0.86995
H         -4.75480       -2.14272       -0.90619
H         -5.89404       -4.01671       -0.26900
O         -2.72534        1.93181       -0.96151
S         -2.30268        3.54945       -0.84438
O         -3.09651        4.06172        0.27486
O         -0.84915        3.52676       -0.57843
O         -2.68194        4.04890       -2.15983
H          3.03021        3.65660        1.23626
H         -1.66143        0.59345        3.88399
