59
ZTX_ketone_227_solv.log	Energy: -1435158.2583427
C          1.39739        1.37499        0.49049
N          1.54505        1.50546       -0.93983
C          0.90449        0.72718       -1.81025
C          0.25243        2.12364        1.21560
H          2.28823        1.82265        0.94212
N          0.89456        1.01463       -3.09721
H          1.29328        1.88719       -3.43182
H          2.15945        2.23240       -1.29651
N          0.22387       -0.34142       -1.34590
C         -1.01399       -1.13078        0.47525
C         -1.98558       -0.80706       -0.67848
C         -1.04905       -0.80285       -1.89932
O         -1.27009       -1.48376        1.58775
H         -1.40154       -0.12833       -2.68802
H         -0.95776       -1.82027       -2.30377
O          0.54755        2.80438        2.17819
C          1.33537       -0.09804        0.89808
C          0.43778       -0.92553       -0.03371
N          1.16496       -2.17598       -0.10704
C          2.45071       -1.99911        0.23590
N          2.62145       -0.78544        0.79935
H          0.96128       -0.18211        1.93112
N          3.39984       -2.88583        0.07146
H          0.87195       -2.92519       -0.73051
C          3.74240       -0.39513        1.61239
H          4.37533       -2.58086        0.17160
C         -2.67379        0.55654       -0.46990
O          4.63421        0.46633        0.93208
H          3.36618        0.18258        2.46399
H          4.26750       -1.28368        1.98416
C          5.60090       -0.10321        0.18722
O          5.73980       -1.30305        0.03659
N          6.40877        0.84698       -0.32306
H          6.11385        1.82147       -0.33249
O          7.27531        0.47777       -1.31120
H          8.14862        0.41663       -0.89503
H         -3.33414        0.69250       -1.33626
H         -3.31075        0.47895        0.41993
N         -1.04990        1.77333        0.94034
C         -1.76434        1.77663       -0.34656
C         -2.49412        3.13578       -0.23921
C         -2.79027        3.23595        1.25724
O         -1.95292        2.24645        1.88195
H         -1.05836        1.85327       -1.17646
C         -3.68001        3.37970       -1.15594
H         -1.74109        3.89385       -0.50044
H         -2.55169        4.22841        1.66556
H         -3.82834        2.97416        1.49915
O         -4.79765        2.62142       -0.74991
H         -3.91174        4.45947       -1.13291
H         -3.38055        3.13397       -2.19105
H         -5.51495        2.79499       -1.36975
O         -2.94562       -1.80791       -0.93351
S         -3.94429       -2.54383        0.19906
O         -3.12834       -3.62321        0.76359
O         -4.32798       -1.50051        1.15752
O         -5.01959       -2.99663       -0.68351
H          3.18999       -3.76226       -0.39670
H          0.54425        0.34717       -3.77689
