59
ZTX_ketone_234_solv.log	Energy: -1435163.2012662
C          1.59907       -0.99878        1.14121
N          0.94812       -0.86478        2.42106
C         -0.13851       -0.11863        2.60946
C          1.14787       -2.09169        0.14227
H          2.63537       -1.29114        1.33862
N         -0.80634       -0.17711        3.74524
H         -0.55417       -0.86130        4.45265
H          1.34576       -1.35461        3.21833
N         -0.58086        0.66649        1.60272
C         -0.71575        0.73038       -0.73063
C         -2.10749        0.41245       -0.16006
C         -2.00661        0.84979        1.31449
O         -0.38594        0.71827       -1.88043
H         -2.61605        0.21278        1.96576
H         -2.30925        1.89199        1.46573
O          2.02642       -2.74121       -0.39615
C          1.59182        0.32796        0.38735
C          0.23539        1.03092        0.45127
N          0.63185        2.41614        0.45991
C          1.92432        2.55913        0.75784
N          2.50726        1.34492        0.91905
H          1.83789        0.15237       -0.67358
N          2.51832        3.72052        0.88617
H         -0.04131        3.16619        0.29651
C          3.92721        1.10749        0.86710
H          3.51066        3.79496        1.08293
C         -2.40232       -1.09122       -0.30225
O          4.29788        0.80069       -0.46214
H          4.47096        2.00162        1.18949
H          4.19346        0.28034        1.53562
C          4.73873       -0.44673       -0.72610
O          5.12187       -1.23573        0.11274
N          4.76819       -0.69464       -2.05879
H          4.88621       -1.66896       -2.33024
O          3.95677        0.02845       -2.89610
H          4.53645        0.64568       -3.36625
H         -3.40894       -1.24783        0.10532
H         -2.44223       -1.31616       -1.37758
N         -0.14398       -2.11091       -0.31134
C         -1.43568       -2.05666        0.38734
C         -1.83896       -3.54944        0.30789
C         -1.23270       -3.98896       -1.02766
O         -0.33364       -2.93311       -1.40998
H         -1.29084       -1.81280        1.44276
C         -3.30506       -3.89997        0.49854
H         -1.29248       -4.04469        1.12335
H         -0.67576       -4.93299       -0.94216
H         -1.98183       -4.06959       -1.82522
O         -4.06218       -3.52718       -0.63152
H         -3.37515       -4.98821        0.67412
H         -3.67118       -3.39903        1.41309
H         -4.98575       -3.73698       -0.45397
O         -3.11779        1.05584       -0.90191
S         -3.19550        2.72906       -0.91109
O         -4.06734        3.06840        0.21623
O         -1.79309        3.15782       -0.72519
O         -3.75211        2.99290       -2.23195
H          1.97998        4.57551        0.78116
H         -1.53644        0.49626        3.95574
