59
ZTX_ketone_147_solv.log	Energy: -1435167.1202197
C          0.59400       -1.99485        0.82543
N          0.07314       -1.71560        2.14165
C         -0.54279       -0.57477        2.44740
C         -0.33490       -2.60508       -0.25302
H          1.35018       -2.77720        0.94064
N         -1.18396       -0.43956        3.59192
H         -1.30703       -1.23741        4.20849
H          0.17934       -2.42329        2.86309
N         -0.53918        0.42852        1.54608
C         -0.56353        0.85600       -0.75040
C         -1.94608        1.19317       -0.16074
C         -1.67171        1.33517        1.34970
O         -0.25514        0.84520       -1.90600
H         -2.53186        1.01412        1.94867
H         -1.41061        2.36060        1.63601
O          0.06492       -3.58598       -0.84775
C          1.24772       -0.75209        0.22369
C          0.38466        0.50192        0.41944
N          1.38610        1.52204        0.59795
C          2.57497        0.99713        0.89935
N          2.50982       -0.35651        0.86110
H          1.41405       -0.90819       -0.85460
N          3.64243        1.69539        1.20288
H          1.15776        2.51448        0.52325
C          3.63499       -1.23519        0.97973
H          4.56938        1.25785        1.14203
C         -2.94035        0.05778       -0.45868
O          4.32964       -1.40646       -0.24533
H          4.31022       -0.86548        1.76034
H          3.27824       -2.22904        1.26603
C          5.45238       -0.68693       -0.43759
O          5.85900        0.17588        0.31962
N          6.07528       -1.09231       -1.56144
H          5.58491       -1.66765       -2.24354
O          7.06308       -0.29200       -2.05988
H          7.90112       -0.70788       -1.80621
H         -3.89170        0.35997       -0.00028
H         -3.08539        0.02841       -1.54869
N         -1.41208       -1.87058       -0.70036
C         -2.56218       -1.33669        0.04500
C         -3.61858       -2.42008       -0.26316
C         -3.23523       -2.85867       -1.67901
O         -1.91787       -2.32846       -1.90764
H         -2.36769       -1.35504        1.12031
C         -5.07480       -2.00384       -0.09413
H         -3.42979       -3.25039        0.43327
H         -3.21413       -3.95181       -1.79147
H         -3.89001       -2.42358       -2.44858
O         -5.95166       -3.10414       -0.20658
H         -5.21394       -1.58483        0.91412
H         -5.33795       -1.21634       -0.82137
H         -6.01269       -3.34976       -1.13743
O         -2.49443        2.33476       -0.77687
S         -1.74442        3.82142       -0.58481
O         -2.07856        4.48401       -1.83888
O         -2.35910        4.39749        0.61346
O         -0.31511        3.48680       -0.41495
H          3.57648        2.70888        1.21037
H         -1.52860        0.46659        3.89238
