59
ZTX_ketone_104_solv.log	Energy: -1435166.4335298
C         -1.30657        1.32645        1.25212
N         -0.61609        1.09295        2.49766
C          0.37324        0.21033        2.62411
C         -0.72866        2.35876        0.25351
H         -2.27609        1.76847        1.50020
N          1.11020        0.17938        3.71783
H          1.00292        0.89800        4.42748
H         -0.89054        1.63671        3.31137
N          0.63996       -0.62617        1.59866
C          0.62794       -0.73964       -0.73788
C          2.08305       -0.63487       -0.25028
C          1.99874       -1.03695        1.23595
O          0.24060       -0.70622       -1.86921
H          2.73955       -0.50089        1.84049
H          2.13928       -2.11302        1.38926
O         -1.47121        3.22728       -0.15725
C         -1.53458        0.01520        0.50475
C         -0.28747       -0.87669        0.50108
N         -0.87093       -2.19298        0.56117
C         -2.13635       -2.14813        0.97772
N         -2.54291       -0.86311        1.11696
H         -1.81325        0.22761       -0.53921
N         -2.86863       -3.20966        1.21493
H         -0.31782       -3.03144        0.37820
C         -3.92148       -0.48803        1.27158
H         -3.85226       -3.13742        1.45225
C          2.59449        0.80477       -0.43336
O         -4.67357       -0.67014        0.08656
H         -4.39189       -1.12031        2.03233
H         -3.97350        0.55307        1.60663
C         -4.69038        0.35345       -0.79747
O         -4.12171        1.41117       -0.63442
N         -5.39482       -0.00919       -1.89328
H         -6.04259       -0.79300       -1.84191
O         -5.74693        0.98333       -2.76530
H         -5.14999        0.89716       -3.52386
H          3.63257        0.81677       -0.07776
H          2.61081        1.01218       -1.51275
N          0.48976        2.10021       -0.33937
C          1.80663        1.89854        0.28773
C          2.38804        3.32689        0.15861
C          1.75759        3.82977       -1.14300
O          0.72441        2.88108       -1.46111
H          1.69551        1.68766        1.35407
C          3.89539        3.48648        0.25344
H          1.96272        3.89481        0.99870
H          1.31720        4.83121       -1.03247
H          2.46134        3.82391       -1.98481
O          4.52667        2.99630       -0.90853
H          4.11688        4.55933        0.39582
H          4.24930        2.95929        1.15792
H          5.47934        3.07498       -0.78587
O          2.93874       -1.43305       -1.03472
S          2.76347       -3.09918       -1.01865
O          3.64394       -3.55544        0.05952
O          1.32769       -3.31162       -0.74160
O          3.19136       -3.45522       -2.36569
H         -2.45815       -4.13421        1.12397
H          1.75975       -0.58166        3.88872
