59
ZTX_ketone_298_solv.log	Energy: -1435156.8466158
C         -1.50012        1.33175        1.07010
N         -0.98879        1.22164        2.41631
C         -0.12720        0.27817        2.79333
C         -0.69663        2.13952        0.02239
H         -2.43641        1.89457        1.12807
N          0.47243        0.34214        3.96581
H          0.36757        1.16618        4.55056
H         -1.29499        1.90331        3.10554
N          0.15452       -0.72707        1.93758
C          0.39356       -1.22562       -0.33754
C          1.79707       -1.14756        0.29756
C          1.48155       -1.32840        1.79496
O          0.11283       -1.47307       -1.47282
H          2.21316       -0.82462        2.43700
H          1.45675       -2.39781        2.04519
O         -1.26459        3.02481       -0.58044
C         -1.79008       -0.04942        0.48511
C         -0.66645       -1.05380        0.78387
N         -1.41755       -2.27454        0.96671
C         -2.70914       -2.02498        1.20804
N         -2.96970       -0.70688        1.06649
H         -1.91227        0.02660       -0.60579
N         -3.57904       -2.95068        1.53051
H         -0.97675       -3.17008        1.16301
C         -4.29896       -0.16611        0.96947
H         -4.56387       -2.74381        1.65795
C          2.48966        0.19758        0.01741
O         -4.90657       -0.43173       -0.27969
H         -4.93911       -0.63025        1.72735
H         -4.26038        0.91151        1.16210
C         -4.69563        0.46368       -1.27131
O         -3.97580        1.43383       -1.17706
N         -5.44105        0.12840       -2.34908
H         -5.81013       -0.81709       -2.42996
O         -5.12321        0.73130       -3.53493
H         -5.81116        1.39531       -3.69100
H          3.45169        0.16543        0.54426
H          2.69637        0.26805       -1.05892
N          0.52966        1.64189       -0.38094
C          1.72712        1.44499        0.45239
C          2.48141        2.76262        0.17844
C          2.07823        3.08661       -1.26266
O          0.97965        2.20728       -1.56491
H          1.45903        1.42052        1.51111
C          3.97865        2.73098        0.41456
H          2.05185        3.52007        0.85098
H          1.75567        4.12998       -1.38614
H          2.87349        2.85937       -1.98683
O          4.46343        4.04266        0.22132
H          4.18100        2.37315        1.44112
H          4.46047        2.02648       -0.28639
H          5.42558        4.01324        0.26864
O          2.54760       -2.27552       -0.09756
S          3.66658       -2.30024       -1.34920
O          2.99966       -1.67781       -2.49962
O          4.82306       -1.55074       -0.84401
O          3.87291       -3.74272       -1.45727
H         -3.27226       -3.91265        1.64240
H          1.00616       -0.44412        4.32237
