59
ZTX_ketone_82_solv.log	Energy: -1435168.9598516
C          1.09846       -1.66013       -0.30969
N          1.15351       -1.52659        1.12559
C          0.52386       -0.55602        1.78442
C         -0.06659       -2.44617       -0.95832
H          1.97362       -2.24638       -0.60766
N          0.41944       -0.58821        3.09880
H          0.73028       -1.40302        3.61952
H          1.69346       -2.20643        1.65419
N         -0.05203        0.44187        1.08135
C         -1.10911        0.96005       -0.93514
C         -2.15872        0.94857        0.19172
C         -1.31656        1.06561        1.47761
O         -1.31438        1.07938       -2.10757
H         -1.77110        0.51455        2.30923
H         -1.16681        2.10541        1.79013
O          0.21332       -3.34325       -1.72668
C          1.17891       -0.29055       -0.98409
C          0.28674        0.75576       -0.30246
N          1.09652        1.94550       -0.41272
C          2.37962        1.64070       -0.63044
N          2.50590        0.32229       -0.90619
H          0.88604       -0.37981       -2.04299
N          3.37291        2.49496       -0.60450
H          0.74082        2.85581       -0.12159
C          3.64301       -0.28505       -1.54553
H          4.33220        2.13134       -0.58030
C         -2.96325       -0.36230        0.15245
O          4.44343       -1.02482       -0.64374
H          3.28214       -1.01196       -2.28174
H          4.24333        0.47541       -2.06001
C          5.38896       -0.35031        0.03764
O          5.61875        0.83748       -0.09364
N          6.00907       -1.17622        0.90541
H          5.93853       -2.18498        0.78443
O          7.16463       -0.73060        1.48181
H          6.93509       -0.48965        2.39216
H         -3.69329       -0.29094        0.97019
H         -3.51920       -0.38298       -0.79666
N         -1.34173       -1.91774       -0.88439
C         -2.16294       -1.65548        0.30960
C         -3.02675       -2.93551        0.33905
C         -3.15826       -3.28975       -1.14449
O         -2.20441       -2.45694       -1.82630
H         -1.54249       -1.64724        1.20964
C         -4.35708       -2.84470        1.07244
H         -2.41991       -3.70702        0.83823
H         -2.93377       -4.34647       -1.34757
H         -4.14661       -3.03922       -1.55545
O         -5.03735       -4.08061        1.04738
H         -4.18851       -2.49510        2.10706
H         -5.01804       -2.11710        0.57850
H         -4.49710       -4.72538        1.52066
O         -3.10971        1.97041        0.00616
S         -2.62665        3.57328        0.09375
O         -1.21276        3.54794       -0.33488
O         -3.54641        4.21041       -0.84062
O         -2.80789        3.94033        1.50026
H          3.19432        3.45995       -0.34330
H          0.08874        0.22136        3.61390
