59
ZTX_ketone_303_solv.log	Energy: -1435167.2290800
C         -1.45897        1.21608       -0.52972
N         -1.54661        1.16453        0.90950
C         -0.78560        0.35857        1.64766
C         -0.43956        2.16194       -1.20541
H         -2.41827        1.61071       -0.87599
N         -0.76446        0.46381        2.96200
H         -1.24379        1.23281        3.42113
H         -2.31202        1.66535        1.35525
N          0.00884       -0.53617        1.02394
C          1.24193       -0.90789       -0.92388
C          2.21217       -0.64782        0.24457
C          1.34784       -0.88745        1.49863
O          1.52333       -1.02508       -2.08055
H          1.64455       -0.23263        2.32648
H          1.38586       -1.92619        1.84642
O         -0.85118        2.89649       -2.08171
C         -1.26306       -0.18084       -1.11347
C         -0.19311       -0.97612       -0.35298
N         -0.71791       -2.31712       -0.42463
C         -2.02700       -2.30662       -0.68665
N         -2.43499       -1.05782       -0.99734
H         -0.96926       -0.10201       -2.17227
N         -2.79534       -3.36966       -0.65287
H         -0.16646       -3.12154       -0.12388
C         -3.73347       -0.75772       -1.54950
H         -3.78869       -3.31493       -0.85264
C          2.73730        0.79616        0.18720
O         -4.73664       -0.78553       -0.55519
H         -3.68875        0.21741       -2.04771
H         -4.02529       -1.51920       -2.28330
C         -4.98257        0.34942        0.13517
O         -4.47175        1.42498       -0.09476
N         -5.91932        0.10812        1.07855
H         -6.11162       -0.84675        1.37470
O         -6.11129        1.06980        2.03017
H         -6.93215        1.52564        1.78988
H          3.41312        0.90487        1.04647
H          3.33664        0.89577       -0.72984
N          0.90790        1.94654       -1.01229
C          1.68424        1.90396        0.23604
C          2.27214        3.33015        0.24320
C          2.44585        3.62803       -1.24854
O          1.70472        2.60436       -1.93651
H          1.01829        1.80456        1.09684
C          3.52770        3.53330        1.06804
H          1.49239        3.98995        0.65197
H          2.05389        4.61534       -1.53046
H          3.49041        3.53909       -1.57964
O          3.83574        4.91055        1.03132
H          3.34917        3.18607        2.10265
H          4.35775        2.93531        0.65244
H          4.69498        5.03383        1.44994
O          3.35675       -1.46151        0.14156
S          3.20788       -3.12483        0.28933
O          1.84530       -3.41199       -0.20509
O          4.28853       -3.59459       -0.56833
O          3.38178       -3.38754        1.71949
H         -2.39943       -4.26856       -0.39465
H         -0.31130       -0.24192        3.53357
