59
ZTX_ketone_268_solv.log	Energy: -1435165.1658477
C         -1.07312        1.57261        1.09186
N         -0.43428        1.31549        2.35995
C          0.41741        0.30944        2.55192
C         -0.33784        2.43987        0.04034
H         -1.96789        2.16811        1.29606
N          1.14129        0.24194        3.65295
H          1.12875        1.00868        4.31923
H         -0.63741        1.93728        3.13778
N          0.56270       -0.61762        1.58144
C          0.54265       -0.87915       -0.74199
C          1.99620       -0.96428       -0.24187
C          1.84595       -1.25003        1.26662
O          0.17033       -0.86386       -1.87858
H          2.65398       -0.79137        1.84852
H          1.82229       -2.32273        1.49065
O         -0.92924        3.38932       -0.42998
C         -1.49034        0.26557        0.42219
C         -0.38799       -0.79910        0.49048
N         -1.15859       -2.00974        0.62412
C         -2.41007       -1.75431        1.00462
N         -2.61835       -0.41800        1.07224
H         -1.73145        0.45094       -0.63635
N         -3.29921       -2.68088        1.27130
H         -0.73843       -2.92946        0.48147
C         -3.92066        0.16427        1.23050
H         -4.27015       -2.45657        1.46400
C          2.72092        0.36648       -0.50528
O         -4.70231        0.07967        0.05248
H         -4.47149       -0.38700        2.00019
H         -3.81517        1.20493        1.55475
C         -4.57203        1.07880       -0.83925
O         -3.82440        2.02784       -0.70151
N         -5.33425        0.88738       -1.93932
H         -5.47074        1.68585       -2.55587
O         -6.35801       -0.02148       -1.92446
H         -6.04814       -0.78095       -2.44051
H          3.74164        0.23835       -0.12025
H          2.78421        0.49769       -1.59570
N          0.82338        1.95018       -0.52630
C          2.09795        1.61148        0.12718
C          2.89426        2.91257       -0.11649
C          2.33122        3.40100       -1.45594
O          1.16421        2.59832       -1.70326
H          1.95783        1.49818        1.20518
C          4.41260        2.78814       -0.07338
H          2.59877        3.61659        0.67514
H          2.04828        4.46298       -1.43127
H          3.01837        3.22408       -2.29645
O          5.04153        4.05076       -0.11798
H          4.71000        2.31575        0.87516
H          4.76896        2.14157       -0.89429
H          4.95344        4.40098       -1.01258
O          2.72434       -1.93012       -0.96328
S          2.30241       -3.54796       -0.84715
O          3.09738       -4.06095        0.27095
O          0.84909       -3.52611       -0.57994
O          2.68071       -4.04613       -2.16336
H         -3.02906       -3.65937        1.23293
H          1.66451       -0.59651        3.88432
