59
ZTX_ketone_109_solv.log	Energy: -1435167.4576253
C         -1.25820        1.39928        1.14592
N         -0.50809        1.26294        2.37125
C          0.49969        0.40363        2.51232
C         -0.74547        2.35859        0.04322
H         -2.22196        1.84610        1.40653
N          1.28707        0.45776        3.56925
H          1.19721        1.21970        4.23491
H         -0.75868        1.85332        3.15969
N          0.73243       -0.49735        1.53487
C          0.61418       -0.78205       -0.78324
C          2.08898       -0.62713       -0.37249
C          2.07934       -0.91779        1.14199
O          0.17571       -0.83429       -1.89491
H          2.83801       -0.32803        1.66981
H          2.24379       -1.97716        1.36956
O         -1.52396        3.17674       -0.40276
C         -1.50204        0.03582        0.50388
C         -0.24177       -0.83898        0.50431
N         -0.80051       -2.15471        0.68659
C         -2.05141       -2.09771        1.14364
N         -2.46898       -0.81142        1.21858
H         -1.83075        0.17259       -0.53817
N         -2.76241       -3.15064        1.46843
H         -0.24831       -2.99758        0.52126
C         -3.84002       -0.44080        1.43472
H         -3.74050       -3.07521        1.72698
C          2.57121        0.80153       -0.67368
O         -4.66139       -0.70607        0.31297
H         -4.25274       -1.02992        2.26081
H         -3.88703        0.61891        1.70732
C         -4.75233        0.25935       -0.63003
O         -4.19767        1.33499       -0.56797
N         -5.51421       -0.18450       -1.65576
H         -6.14014       -0.97493       -1.51358
O         -5.94718        0.74615       -2.55923
H         -5.40766        0.61794       -3.35378
H          3.61661        0.84512       -0.34147
H          2.55290        0.93472       -1.76548
N          0.44966        2.07160       -0.58201
C          1.79398        1.93428       -0.00220
C          2.35859        3.34444       -0.28708
C          1.67555        3.71767       -1.60298
O          0.61886        2.75674       -1.77579
H          1.73627        1.80972        1.08140
C          3.87404        3.46066       -0.31087
H          1.97565        3.99645        0.51351
H          1.25152        4.73151       -1.58374
H          2.34146        3.61478       -2.47188
O          4.46041        2.99899        0.88675
H          4.29303        2.85421       -1.12761
H          4.14755        4.51050       -0.51728
H          4.15396        3.56320        1.60751
O          2.91976       -1.46962       -1.13643
S          2.76983       -3.13311       -0.99283
O          3.14618       -3.57916       -2.32822
O          3.69990       -3.50130        0.07712
O          1.34978       -3.34037       -0.64003
H         -2.34331       -4.07465        1.42043
H          1.95182       -0.28442        3.76359
