59
ZTX_ketone_269_solv.log	Energy: -1435167.0587928
C          1.14584       -1.59369        1.04471
N          0.43599       -1.43866        2.29165
C         -0.49003       -0.50151        2.48507
C          0.52451       -2.46988       -0.07104
H          2.07416       -2.12766        1.26700
N         -1.25822       -0.52405        3.55668
H         -1.22421       -1.31470        4.19346
H          0.64920       -2.07687        3.05352
N         -0.66524        0.45043        1.54407
C         -0.56553        0.81634       -0.76257
C         -2.04082        0.77176       -0.32766
C         -1.98005        0.99532        1.19731
O         -0.14401        0.87510       -1.88051
H         -2.77371        0.44526        1.71699
H         -2.05507        2.05382        1.47135
O          1.21014       -3.34883       -0.55186
C          1.49294       -0.23355        0.44375
C          0.31495        0.74692        0.50644
N          0.98990        2.00046        0.72657
C          2.23902        1.81779        1.15291
N          2.54730        0.49857        1.16280
H          1.78474       -0.35981       -0.61046
N          3.03779        2.79522        1.50779
H          0.50695        2.89378        0.61947
C          3.88979        0.00702        1.30489
H          4.00830        2.63525        1.75519
C         -2.64967       -0.59570       -0.67868
O          4.66946        0.22003        0.14179
H          4.39348        0.54704        2.11383
H          3.85971       -1.05681        1.56301
C          4.65731       -0.74939       -0.79210
O          4.01762       -1.77967       -0.70516
N          5.40401       -0.42805       -1.87247
H          5.63465       -1.17929       -2.51967
O          6.31886        0.58840       -1.80654
H          5.92818        1.33113       -2.29119
H         -3.69205       -0.56210       -0.33498
H         -2.65162       -0.68799       -1.77479
N         -0.65034       -2.05458       -0.66495
C         -1.96896       -1.81511       -0.05739
C         -2.66553       -3.16068       -0.36927
C         -2.01485       -3.58003       -1.68917
O         -0.90200       -2.68834       -1.87174
H         -1.88558       -1.72676        1.02797
C         -4.17870       -3.12765       -0.41564
H         -2.35985       -3.85909        0.42372
H         -1.65604       -4.61885       -1.66665
H         -2.67578       -3.43831       -2.55592
O         -4.65029       -2.68551        0.83924
H         -4.51915       -2.46524       -1.23153
H         -4.54649       -4.14305       -0.64933
H         -5.60822       -2.59261        0.78340
O         -2.80779        1.71434       -1.03953
S         -2.51234        3.35116       -0.83163
O         -2.86366        3.88348       -2.14190
O         -3.39524        3.75205        0.26616
O         -1.07576        3.41981       -0.49191
H          2.69193        3.75031        1.50395
H         -1.85418        0.26396        3.78897
