59
ZTX_ketone_120_solv.log	Energy: -1435169.5413960
C         -1.33732        1.47371       -0.41002
N         -1.33547        1.40647        1.03123
C         -0.57660        0.55089        1.71291
C         -0.30525        2.37315       -1.13209
H         -2.28947        1.92701       -0.70443
N         -0.45779        0.64787        3.02272
H         -0.85973        1.43837        3.51801
H         -1.96164        2.02185        1.54355
N          0.11277       -0.39196        1.03688
C          1.19276       -0.84528       -0.98373
C          2.25097       -0.64577        0.11675
C          1.45625       -0.82419        1.42593
O          1.38994       -0.98267       -2.15559
H          1.84773       -0.18592        2.22737
H          1.45314       -1.86138        1.77958
O         -0.72259        3.17091       -1.94725
C         -1.25172        0.07406       -1.01914
C         -0.20522       -0.80773       -0.32486
N         -0.84132       -2.10312       -0.36543
C         -2.16128       -1.98610       -0.54009
N         -2.47669       -0.71164       -0.86264
H         -1.00742        0.15250       -2.09114
N         -3.02566       -2.96648       -0.44120
H         -0.35330       -2.94063       -0.04823
C         -3.72322       -0.28280       -1.43393
H         -4.02251       -2.73242       -0.37586
C          2.86256        0.76150        0.01287
O         -4.54119        0.38899       -0.49404
H         -3.51398        0.45113       -2.21959
H         -4.25464       -1.13589       -1.87292
C         -5.33549       -0.36740        0.27631
O         -5.42245       -1.58241        0.19467
N         -6.01075        0.35588        1.19256
H         -6.79023       -0.09308        1.66966
O         -6.09312        1.71621        1.07713
H         -5.47930        2.07844        1.73396
H          3.60072        0.82789        0.82276
H          3.39812        0.82404       -0.94598
N          1.03147        2.04383       -1.04980
C          1.88783        1.93180        0.14061
C          2.55994        3.32354        0.12435
C          2.65008        3.63434       -1.37018
O          1.80597        2.66573       -2.01735
H          1.28150        1.86079        1.04646
C          3.88098        3.43330        0.86804
H          1.84304        4.01648        0.59181
H          2.29898        4.64778       -1.61066
H          3.66247        3.49105       -1.77453
O          3.76787        3.02418        2.21369
H          4.64067        2.78987        0.39973
H          4.24783        4.47203        0.78983
H          3.14649        3.61626        2.65527
O          3.33073       -1.53350       -0.05220
S          3.07607       -3.18275        0.11126
O          3.32687       -3.45876        1.52754
O          1.66676       -3.37180       -0.29017
O          4.06173       -3.72661       -0.81454
H         -2.70599       -3.88281       -0.14181
H         -0.01126       -0.08935        3.55889
