59
ZTX_ketone_257_solv.log	Energy: -1435155.2784132
C         -1.45491        1.54661        0.94000
N         -0.94671        1.63284        2.28931
C         -0.05178        0.78038        2.78573
C         -0.68258        2.24965       -0.20292
H         -2.41399        2.07265        0.92324
N          0.54293        1.01850        3.93840
H          0.41243        1.90907        4.40905
H         -1.27405        2.39210        2.88062
N          0.26917       -0.31954        2.07147
C          0.53525       -1.09043       -0.12408
C          1.93204       -0.88864        0.49839
C          1.61981       -0.87880        2.00560
O          0.25523       -1.40468       -1.24235
H          2.32846       -0.26061        2.56861
H          1.64164       -1.90449        2.39787
O         -1.29422        3.01904       -0.91500
C         -1.68667        0.09091        0.53797
C         -0.53224       -0.82443        0.97137
N         -1.23967       -2.03880        1.30917
C         -2.54180       -1.80677        1.50797
N         -2.84855       -0.52993        1.18949
H         -1.79701        0.02066       -0.55503
N         -3.38413       -2.70996        1.94661
H         -0.76729       -2.87789        1.63826
C         -4.19742       -0.07325        0.98641
H         -4.37577       -2.51586        2.03759
C          2.56560        0.43431        0.02533
O         -4.75377       -0.55026       -0.22359
H         -4.83727       -0.45299        1.79048
H         -4.21376        1.02136        1.01840
C         -4.56924        0.20503       -1.33096
O         -3.91863        1.22685       -1.36393
N         -5.25676       -0.33248       -2.36383
H         -5.56272       -1.30248       -2.31865
O         -4.95765        0.12613       -3.61691
H         -5.67862        0.72566       -3.86103
H          3.53717        0.50057        0.53223
H          2.75929        0.34644       -1.05069
N          0.56825        1.77362       -0.54008
C          1.77479        1.70971        0.30249
C          2.47179        3.02552       -0.12146
C          2.04775        3.17543       -1.58533
O          0.99948        2.21122       -1.78337
H          1.50803        1.80935        1.35756
C          3.96429        3.14777        0.13531
H          1.98985        3.81885        0.46820
H          1.66806        4.18320       -1.80750
H          2.85016        2.91745       -2.28767
O          4.69656        2.34040       -0.75977
H          4.24427        4.21029        0.02135
H          4.16499        2.87019        1.18610
H          5.63109        2.42664       -0.54135
O          2.82701       -1.95993        0.29776
S          3.15515       -2.72158       -1.16314
O          2.08794       -3.71643       -1.30660
O          3.15673       -1.67131       -2.18807
O          4.46957       -3.28460       -0.85407
H         -3.04935       -3.63911        2.18484
H          1.10618        0.30506        4.39011
