59
ZTX_ketone_113_solv.log	Energy: -1435168.4417295
C         -1.53414        1.13560       -0.57606
N         -1.58498        1.12656        0.86598
C         -0.75802        0.39766        1.61301
C         -0.60766        2.13405       -1.30749
H         -2.52931        1.44294       -0.90988
N         -0.71729        0.54992        2.92223
H         -1.23550        1.30261        3.36572
H         -2.36766        1.59813        1.31352
N          0.08065       -0.46471        1.00222
C          1.29947       -0.80291       -0.96140
C          2.27027       -0.43242        0.17515
C          1.45243       -0.69888        1.45525
O          1.56293       -0.92995       -2.12132
H          1.71484        0.00093        2.25734
H          1.57701       -1.72112        1.83041
O         -1.09342        2.79975       -2.20162
C         -1.24973       -0.26153       -1.12105
C         -0.11527       -0.95817       -0.35730
N         -0.54664       -2.33398       -0.38147
C         -1.85614       -2.42231       -0.62641
N         -2.35562       -1.21404       -0.96322
H         -0.97616       -0.19426       -2.18598
N         -2.54874       -3.53389       -0.55712
H          0.06321       -3.09024       -0.06953
C         -3.68086       -1.02197       -1.49864
H         -3.54505       -3.55201       -0.75028
C          2.68036        1.04534        0.06136
O         -4.66429       -1.07219       -0.48488
H         -3.71133       -0.06959       -2.04117
H         -3.93739       -1.83266       -2.19174
C         -4.95117        0.06207        0.18995
O         -4.54835        1.16661       -0.10685
N         -5.72353       -0.23542        1.25938
H         -6.21211       -1.12846        1.29391
O         -6.36553        0.80463        1.87256
H         -5.89270        0.95747        2.70448
H          3.35876        1.23607        0.90343
H          3.25030        1.16227       -0.87229
N          0.75271        2.03922       -1.12917
C          1.54689        2.07031        0.10614
C          2.02308        3.54178        0.08830
C          2.13521        3.84065       -1.40794
O          1.48454        2.74337       -2.07179
H          0.90440        1.93720        0.97897
C          3.28414        3.84014        0.87166
H          1.20278        4.13720        0.51577
H          1.64165        4.78326       -1.68399
H          3.17475        3.85207       -1.76488
O          3.06292        3.47706        2.21769
H          4.13953        3.29024        0.44016
H          3.51184        4.91719        0.77658
H          3.88818        3.59868        2.70080
O          3.47212       -1.15879        0.07047
S          3.45237       -2.82339        0.26385
O          3.67765       -3.03443        1.69546
O          2.10444       -3.22451       -0.18975
O          4.54595       -3.23459       -0.60759
H         -2.09124       -4.39639       -0.27753
H         -0.20739       -0.10520        3.50655
