59
ZTX_ketone_6_solv.log	Energy: -1435170.3992955
C          1.19271       -1.62448       -0.37136
N          1.21324       -1.51550        1.06685
C          0.51360       -0.59903        1.73219
C          0.09780       -2.47639       -1.05813
H          2.11150       -2.14432       -0.66203
N          0.39436       -0.66036        3.04420
H          0.75098       -1.46239        3.55544
H          1.79058       -2.16690        1.59171
N         -0.11612        0.37072        1.03638
C         -1.17399        0.85534       -0.98781
C         -2.23667        0.75131        0.12075
C         -1.42384        0.90505        1.42184
O         -1.36849        0.98023       -2.16160
H         -1.85387        0.31356        2.23886
H         -1.34623        1.94782        1.75012
O          0.45644       -3.32765       -1.84668
C          1.19296       -0.24066       -1.02182
C          0.22254        0.73178       -0.33611
N          0.95318        1.97423       -0.40961
C          2.25782        1.75747       -0.60445
N          2.47404        0.45877       -0.91256
H          0.92303       -0.33299       -2.08661
N          3.19346        2.67213       -0.53267
H          0.53773        2.85009       -0.09350
C          3.66487       -0.05626       -1.53359
H          4.17305        2.36910       -0.49147
C         -2.94420       -0.61265        0.04746
O          4.48660       -0.76750       -0.62780
H          3.37214       -0.78297       -2.29935
H          4.22646        0.75873       -2.00688
C          5.38485       -0.05672        0.08052
O          5.51733        1.15140        0.01247
N          6.13718       -0.88333        0.83312
H          5.84173       -1.84377        0.99659
O          6.91455       -0.32470        1.80616
H          7.81959       -0.32278        1.45927
H         -3.68373       -0.61125        0.85923
H         -3.48437       -0.65664       -0.90988
N         -1.21371       -2.05348       -0.98653
C         -2.05825       -1.84875        0.20011
C         -2.83378       -3.18742        0.22012
C         -2.93148       -3.54350       -1.26413
O         -2.02995       -2.64804       -1.93650
H         -1.44782       -1.80468        1.10463
C         -4.16738       -3.16995        0.93699
H         -2.18119       -3.91527        0.72472
H         -2.63682       -4.58329       -1.46507
H         -3.93068       -3.35747       -1.68321
O         -3.94218       -2.78674        2.27673
H         -4.86324       -2.47806        0.42976
H         -4.61369       -4.17891        0.87557
H         -4.79734       -2.70239        2.71351
O         -3.25561        1.70565       -0.06330
S         -2.88998        3.33698        0.06032
O         -3.11973        3.66279        1.46973
O         -1.47182        3.42122       -0.34536
O         -3.83890        3.92412       -0.87780
H          2.94605        3.61607       -0.25114
H          0.00510        0.11789        3.56663
