59
ZTX_ketone_76_solv.log	Energy: -1435167.7042679
C          0.59307       -1.98850        0.85926
N          0.06472       -1.70087        2.17073
C         -0.55412       -0.55872        2.46531
C         -0.33049       -2.60568       -0.21969
H          1.34893       -2.76971        0.98363
N         -1.20381       -0.41685        3.60416
H         -1.33167       -1.21069        4.22484
H          0.16643       -2.40423        2.89701
N         -0.54447        0.43936        1.55828
C         -0.55174        0.85698       -0.74005
C         -1.93872        1.19666       -0.16268
C         -1.67619        1.34431        1.34936
O         -0.23412        0.84184       -1.89306
H         -2.54065        1.02491        1.94300
H         -1.41825        2.37110        1.63365
O          0.06813       -3.59483       -0.80109
C          1.24931       -0.74981        0.25217
C          0.38750        0.50667        0.43832
N          1.38971        1.52589        0.61866
C          2.57873        1.00080        0.91851
N          2.51122       -0.35303        0.88880
H          1.41772       -0.91207       -0.82490
N          3.64867        1.69893        1.21450
H          1.16444        2.51817        0.53305
C          3.63543       -1.23356        1.00459
H          4.57408        1.26021        1.14359
C         -2.93084        0.06049       -0.46469
O          4.31032       -1.42493       -0.22828
H          4.32274       -0.85495        1.77021
H          3.28013       -2.22229        1.30976
C          5.42136       -0.69832       -0.45763
O          5.84115        0.17482        0.27969
N          6.01652       -1.11106       -1.59470
H          5.50337       -1.68722       -2.25939
O          6.97487       -0.29986       -2.13290
H          7.82671       -0.71337       -1.92595
H         -3.88611        0.36453       -0.01551
H         -3.06662        0.02596       -1.55579
N         -1.40007       -1.86911       -0.68373
C         -2.55802       -1.33169        0.04838
C         -3.61165       -2.41660       -0.26551
C         -3.20302       -2.88783       -1.66366
O         -1.89548       -2.33316       -1.89234
H         -2.37251       -1.34386        1.12538
C         -5.07118       -1.99944       -0.15605
H         -3.43974       -3.23386        0.45226
H         -3.15480       -3.98304       -1.74283
H         -3.85674       -2.49132       -2.45358
O         -5.93320       -3.07554       -0.45597
H         -5.26591       -1.59164        0.85231
H         -5.30019       -1.20844       -0.88536
H         -5.78480       -3.76678        0.20101
O         -2.48153        2.33627       -0.78737
S         -1.73194        3.82314       -0.59535
O         -2.35572        4.40449        0.59566
O         -0.30427        3.48828       -0.41262
O         -2.05558        4.48102       -1.85462
H          3.58485        2.71260        1.21394
H         -1.55103        0.49113        3.89596
