59
ZTX_ketone_115_solv.log	Energy: -1435168.8713162
C          0.69922       -2.00401        0.75749
N          0.10325       -1.80667        2.05613
C         -0.61425       -0.72807        2.36662
C         -0.13462       -2.64847       -0.37881
H          1.50332       -2.73525        0.88370
N         -1.31943       -0.68658        3.48060
H         -1.40693       -1.51552        4.06136
H          0.22280       -2.53123        2.75875
N         -0.64517        0.30543        1.50063
C         -0.59446        0.81152       -0.78073
C         -2.02452        1.02388       -0.25240
C         -1.83848        1.12375        1.27565
O         -0.22978        0.86499       -1.91869
H         -2.69866        0.70859        1.81409
H         -1.68084        2.15426        1.61440
O          0.35995       -3.58373       -0.97603
C          1.28208       -0.69697        0.22346
C          0.32101        0.48432        0.42258
N          1.23556        1.56770        0.67799
C          2.45247        1.12322        0.99322
N          2.48900       -0.22948        0.91704
H          1.49831       -0.80168       -0.85193
N          3.45862        1.88926        1.34284
H          0.94281        2.54338        0.60747
C          3.66716       -1.02942        1.07922
H          4.41501        1.52466        1.26593
C         -2.91237       -0.17028       -0.63943
O          4.39314       -1.19612       -0.12666
H          4.30129       -0.59191        1.85950
H          3.37624       -2.03623        1.39229
C          5.43051       -0.36644       -0.35573
O          5.76278        0.54377        0.38127
N          6.01305       -0.67390       -1.53119
H          5.84341       -1.57820       -1.96724
O          7.21750       -0.09562       -1.81145
H          7.03534        0.60388       -2.45729
H         -3.90427        0.04063       -0.21873
H         -2.99968       -0.17719       -1.73590
N         -1.24189       -1.98211       -0.85627
C         -2.45283       -1.54276       -0.14755
C         -3.41222       -2.69892       -0.50872
C         -2.94761       -3.09241       -1.91118
O         -1.67162       -2.45131       -2.08844
H         -2.29772       -1.56102        0.93325
C         -4.89626       -2.38932       -0.40021
H         -3.17995       -3.51921        0.18843
H         -2.83215       -4.17931       -2.02659
H         -3.60724       -2.70690       -2.70193
O         -5.24675       -1.91945        0.88335
H         -5.17927       -1.60457       -1.11752
H         -5.46900       -3.29402       -0.67099
H         -5.03190       -2.60954        1.52318
O         -2.62677        2.14441       -0.85674
S         -2.00296        3.67464       -0.57829
O         -2.31973        4.35437       -1.82777
O         -2.72172        4.16136        0.60126
O         -0.56320        3.44196       -0.34062
H          3.31864        2.89488        1.37413
H         -1.75225        0.17673        3.79303
