59
ZTX_ketone_258_solv.log	Energy: -1435166.7494306
C          1.11537       -1.63801        1.01789
N          0.40647       -1.48640        2.26594
C         -0.50197       -0.53439        2.47079
C          0.48029       -2.48434       -0.11349
H          2.03214       -2.19439        1.23389
N         -1.27505       -0.55900        3.53896
H         -1.25646       -1.35843        4.16527
H          0.60230       -2.14196        3.01771
N         -0.65528        0.43531        1.54455
C         -0.54766        0.82396       -0.75816
C         -2.02360        0.80416       -0.32300
C         -1.95769        1.01228        1.20401
O         -0.12533        0.88578       -1.87561
H         -2.76304        0.47491        1.71863
H         -2.00909        2.06948        1.48826
O          1.15490       -3.36202       -0.61249
C          1.49035       -0.27616        0.43796
C          0.33091        0.72483        0.51023
N          1.02921        1.96276        0.74496
C          2.27072        1.75064        1.18083
N          2.55414        0.42590        1.17316
H          1.78517       -0.39271       -0.61640
N          3.08183        2.70868        1.56041
H          0.56317        2.86630        0.64923
C          3.88373       -0.09672        1.32579
H          4.05191        2.53353        1.79950
C         -2.66098       -0.54755       -0.68488
O          4.69351        0.13853        0.18737
H          4.38184        0.40509        2.16228
H          3.82671       -1.16769        1.54682
C          4.65742       -0.78500       -0.79084
O          3.97769       -1.79244       -0.75914
N          5.50632       -0.49344       -1.80295
H          5.37215       -0.99694       -2.67751
O          6.01467        0.77141       -1.93381
H          6.94226        0.71608       -1.65976
H         -3.70052       -0.49498       -0.33564
H         -2.67170       -0.62695       -1.78199
N         -0.68903       -2.04257       -0.69681
C         -2.00084       -1.78774       -0.08252
C         -2.71822       -3.11487       -0.41564
C         -2.11021       -3.49199       -1.76604
O         -0.95176       -2.65141       -1.91524
H         -1.91452       -1.71870        1.00389
C         -4.23722       -3.07103       -0.39723
H         -2.38528       -3.84128        0.34220
H         -1.80667       -4.54738       -1.81093
H         -2.77670       -3.26521       -2.61072
O         -4.73808       -2.60357        0.83648
H         -4.61182       -2.38887       -1.17496
H         -4.62584       -4.07650       -0.63721
H         -4.46532       -3.22320        1.52453
O         -2.77199        1.76786       -1.02619
S         -2.44498        3.39676       -0.80442
O         -3.32001        3.80499        0.29698
O         -1.00731        3.43510       -0.46457
O         -2.78638        3.94674       -2.11004
H          2.75307        3.66981        1.56094
H         -1.85628        0.23698        3.78111
