49
M1_hydrate_3_solv.log	Energy: -762588.4831617
C         -1.44908        1.74916       -1.07471
N         -1.78479        2.20893        0.26320
C         -1.29485        1.56252        1.32576
C         -0.02056        2.11640       -1.46864
H         -2.10891        2.26818       -1.78110
N         -1.16422        2.18078        2.48995
H         -1.33483        3.17876        2.55749
H         -1.00072        1.65917        3.34376
H         -2.08485        3.17081        0.38885
N         -0.93316        0.27788        1.19923
C          0.00016       -1.45511       -0.15872
C          0.86183       -1.27790        1.12435
C          0.04602       -0.37398        2.06188
O         -0.33075       -2.80425       -0.25503
H          0.66974        0.38490        2.55125
H         -0.46015       -0.95812        2.84408
H          0.24440        1.65067       -2.42654
H          0.06192        3.20775       -1.56990
O          0.86427        1.69208       -0.44025
C          2.04194        1.14279       -0.75106
O          2.49885        1.16206       -1.87146
C         -1.76704        0.25925       -1.17195
C         -1.28693       -0.55307        0.06096
N         -2.45171       -1.36826        0.34992
C         -3.52309       -0.97973       -0.34757
N         -3.20106        0.01401       -1.17333
H         -1.31136       -0.15091       -2.08072
N         -4.72258       -1.51073       -0.23084
H         -2.46496       -2.09049        1.06259
H         -3.81011        0.33653       -1.91806
H         -5.48695       -1.18204       -0.81067
H         -4.89007       -2.25630        0.43606
H          0.91531       -2.27745        1.57377
C          2.72427        0.59850        0.48372
C          2.32237       -0.83143        0.96680
C          3.23628       -1.81420        0.19376
C          4.36469       -0.95516       -0.40898
C          4.23038        0.41889        0.26001
H          2.50525        1.32253        1.28201
H          2.69661       -0.83261        2.00232
H          3.62236       -2.57198        0.89088
H          2.70344       -2.38344       -0.58325
H          5.35978       -1.39515       -0.25368
H          4.21999       -0.85104       -1.49401
H          4.67208        1.23319       -0.33083
H          4.72539        0.41418        1.24314
O          0.58752       -1.00903       -1.33768
H         -0.89428       -2.92714       -1.03292
H          1.37611       -1.53647       -1.51956
