49
M1_hydrate_11_solv.log	Energy: -762584.6680610
C         -1.41589        1.58496       -1.27874
N         -1.73793        2.15813        0.01929
C         -1.21694        1.63710        1.13067
C         -0.02955        1.94646       -1.80966
H         -2.12040        2.02116       -1.99803
N         -1.18213        2.31698        2.26234
H         -1.42309        3.30295        2.27287
H         -0.94440        1.86466        3.13823
H         -2.15347        3.08344        0.06231
N         -0.71410        0.39350        1.05246
C          0.06586       -1.59790       -0.02568
C          1.00050       -1.20790        1.17861
C          0.19614       -0.20670        2.01829
O         -0.38532       -2.91090        0.06838
H          0.83081        0.56871        2.46747
H         -0.36581       -0.70498        2.82366
H         -0.00579        1.74496       -2.88687
H          0.18469        3.00720       -1.63194
O          1.02174        1.13968       -1.26337
C          1.72765        1.55663       -0.19659
O          1.49245        2.60232        0.36030
C         -1.66500        0.07330       -1.24574
C         -1.17818       -0.57962        0.08164
N         -2.37876       -1.24912        0.54920
C         -3.42251       -1.04591       -0.25859
N         -3.07929       -0.24740       -1.26503
H         -1.16407       -0.39640       -2.10220
N         -4.62017       -1.56407       -0.07666
H         -2.38514       -1.91238        1.31741
H         -3.69184       -0.01723       -2.04002
H         -5.36585       -1.37565       -0.73774
H         -4.80778       -2.15322        0.72703
H          1.12390       -2.12810        1.76580
C          2.82493        0.60028        0.19010
C          2.45195       -0.75433        0.92299
C          3.32623       -1.82817        0.24130
C          4.45276       -1.05283       -0.43744
C          3.74248        0.18647       -0.97565
H          3.42234        1.17860        0.90590
H          2.84061       -0.61902        1.94231
H          3.68582       -2.56611        0.97295
H          2.74025       -2.36779       -0.51449
H          5.21412       -0.75573        0.30255
H          4.95878       -1.62907       -1.22513
H          3.14467       -0.08510       -1.85934
H          4.42211        0.99938       -1.26777
O          0.64424       -1.55098       -1.28435
H         -0.44009       -3.18240        0.99238
H          0.93878       -0.64607       -1.47924
