49
M1_hydrate_5_solv.log	Energy: -762585.9040288
C         -1.47752        1.56421       -1.26541
N         -1.88005        2.09620        0.02999
C         -1.28842        1.65763        1.14335
C         -0.13581        2.08781       -1.78441
H         -2.22958        1.91017       -1.98449
N         -1.29165        2.36921        2.25547
H         -1.60955        3.33309        2.24295
H         -0.98094        1.97075        3.13485
H         -2.34326        2.99975        0.05764
N         -0.69039        0.45761        1.08501
C          0.11133       -1.58567        0.16259
C          1.07583       -1.07526        1.27981
C          0.24649       -0.05877        2.07166
O         -0.43994       -2.82335        0.49816
H          0.85810        0.76041        2.47160
H         -0.29265       -0.53350        2.90658
H         -0.14054        2.01872       -2.87861
H          0.01273        3.13441       -1.48929
O          0.96901        1.28536       -1.37380
C          1.66380        1.59772       -0.28008
O          1.40937        2.56540        0.40537
C         -1.52488        0.02959       -1.24135
C         -1.11869       -0.55991        0.14589
N         -2.35564       -1.18475        0.58897
C         -3.28983       -1.17369       -0.37070
N         -2.86859       -0.48490       -1.42464
H         -0.86312       -0.35475       -2.02584
N         -4.46323       -1.76296       -0.27051
H         -2.34269       -1.89716        1.31258
H         -3.44966       -0.25977       -2.22521
H         -5.12670       -1.71954       -1.03622
H         -4.71121       -2.26778        0.57329
H          1.24629       -1.94452        1.92911
C          2.79102        0.63900       -0.00501
C          2.50092       -0.58861        0.94256
C          3.40332       -1.72028        0.38839
C          4.34737       -1.05930       -0.61881
C          3.49693        0.05117       -1.23112
H          3.52128        1.25526        0.53813
H          2.89120       -0.29437        1.92696
H          3.93810       -2.23271        1.20109
H          2.78527       -2.47099       -0.12180
H          5.21359       -0.61755       -0.09944
H          4.73517       -1.76595       -1.36665
H          2.76093       -0.37529       -1.92617
H          4.08294        0.80839       -1.77214
O          0.75674       -1.66034       -1.05942
H          0.28871       -3.44308        0.64448
H          0.22976       -2.21729       -1.64991
