49
M1_hydrate_6_solv.log	Energy: -762582.3928623
C         -1.22728        1.56708       -1.36165
N         -1.57801        2.21248       -0.10278
C         -1.08728        1.75178        1.05012
C          0.18554        1.85441       -1.86667
H         -1.90170        1.98177       -2.12132
N         -1.04442        2.50681        2.13244
H         -1.22711        3.50297        2.06608
H         -0.81093        2.11325        3.03721
H         -1.93931        3.16110       -0.12633
N         -0.64053        0.48516        1.06250
C         -0.05930       -1.66446        0.20851
C          0.96211       -1.21192        1.31187
C          0.22413       -0.10607        2.07799
O         -0.66080       -2.87750        0.56211
H          0.90237        0.65492        2.48634
H         -0.37546       -0.51623        2.90589
H          0.22650        1.59857       -2.93198
H          0.43323        2.91565       -1.73931
O          1.17679        1.03129       -1.24911
C          1.80471        1.47516       -0.15931
O          1.57219        2.55981        0.33077
C         -1.49768        0.06306       -1.26529
C         -1.16290       -0.50980        0.14600
N         -2.45946       -0.98889        0.59522
C         -3.39637       -0.87533       -0.35252
N         -2.90447       -0.25740       -1.41873
H         -0.91008       -0.45747       -2.02846
N         -4.63251       -1.31434       -0.23101
H         -2.55106       -1.63724        1.37098
H         -3.45069       -0.01184       -2.23731
H         -5.29259       -1.20426       -0.99296
H         -4.92996       -1.77896        0.61976
H          1.07225       -2.07692        1.97943
C          2.85924        0.53477        0.36101
C          2.43103       -0.85519        0.97070
C          3.19212       -1.91610        0.13282
C          3.56204       -1.23076       -1.18020
C          3.89919        0.18861       -0.73562
H          3.33804        1.11886        1.15512
H          2.88370       -0.84782        1.97135
H          4.11752       -2.18403        0.66569
H          2.63403       -2.85570        0.00931
H          4.40017       -1.72017       -1.69737
H          2.70196       -1.21790       -1.86474
H          3.90822        0.91886       -1.55775
H          4.89919        0.20453       -0.27630
O          0.43823       -1.82661       -1.06985
H         -0.61521       -3.01425        1.51660
H          0.95559       -2.64190       -1.09147
