49
M1_hydrate_10_solv.log	Energy: -762588.0984545
C         -1.44057        1.74854       -1.08220
N         -1.75853        2.22720        0.25299
C         -1.26472        1.58595        1.31764
C         -0.00800        2.08400       -1.49018
H         -2.09728        2.26970       -1.78980
N         -1.11123        2.21721        2.47207
H         -1.26844        3.21798        2.52907
H         -0.94676        1.70418        3.33083
H         -2.04021        3.19560        0.37067
N         -0.92397        0.29527        1.20225
C         -0.02675       -1.45864       -0.14845
C          0.85600       -1.27234        1.12139
C          0.05057       -0.36463        2.06339
O         -0.49069       -2.76367       -0.29330
H          0.68287        0.38740        2.55215
H         -0.46026       -0.94373        2.84628
H          0.24291        1.59777       -2.44201
H          0.09518        3.17195       -1.60944
O          0.86965        1.65495       -0.45888
C          2.06150        1.13193       -0.76027
O          2.53076        1.17127       -1.87475
C         -1.77906        0.26227       -1.16090
C         -1.30645       -0.54511        0.07925
N         -2.48870       -1.32292        0.39812
C         -3.54394       -0.95917       -0.33222
N         -3.21387        0.02925       -1.16314
H         -1.33391       -0.14980       -2.07476
N         -4.74141       -1.50015       -0.23792
H         -2.48147       -2.10903        1.03890
H         -3.81697        0.34562       -1.91517
H         -5.49503       -1.18508       -0.83888
H         -4.92005       -2.23268        0.44046
H          0.90921       -2.26946        1.57876
C          2.73303        0.58818        0.47957
C          2.32028       -0.83947        0.95408
C          3.20935       -1.82059        0.15737
C          4.37813       -0.97572       -0.39233
C          4.24005        0.40200        0.27144
H          2.50917        1.31448        1.27492
H          2.70229       -0.85244        1.98760
H          3.55681       -2.62549        0.82191
H          2.64741       -2.29541       -0.65672
H          5.35942       -1.42936       -0.19295
H          4.28657       -0.86935       -1.48308
H          4.69073        1.21353       -0.31666
H          4.72426        0.39979        1.25985
O          0.67639       -1.06861       -1.28133
H          0.27994       -3.34809       -0.32598
H          0.27212       -1.48386       -2.05579
