49
M1_hydrate_solv.log	Energy: -762585.1643582
C         -1.20199        1.54799       -1.38306
N         -1.47493        2.23622       -0.12988
C         -1.04050        1.73427        1.02795
C          0.22356        1.71008       -1.90843
H         -1.84170        2.01172       -2.14496
N         -0.95302        2.48525        2.11114
H         -1.06558        3.49156        2.04266
H         -0.77539        2.07484        3.02108
H         -1.77649        3.20531       -0.15513
N         -0.68273        0.43916        1.04810
C         -0.05679       -1.65178        0.07377
C          0.90358       -1.28327        1.25197
C          0.15860       -0.20471        2.05227
O         -0.59162       -2.89927        0.36871
H          0.83528        0.53076        2.50703
H         -0.46090       -0.64234        2.84999
H          0.25737        1.35106       -2.94347
H          0.52572        2.76335       -1.87668
O          1.18151        0.90714       -1.20340
C          1.83079        1.42898       -0.14711
O          1.65335        2.57087        0.20728
C         -1.62558        0.08405       -1.25279
C         -1.21036       -0.53630        0.11052
N         -2.46493       -1.08895        0.58633
C         -3.48711       -0.80333       -0.22576
N         -3.06856       -0.06976       -1.25329
H         -1.18562       -0.49767       -2.07379
N         -4.72925       -1.19412       -0.02982
H         -2.52650       -1.72326        1.37615
H         -3.65309        0.17796       -2.04451
H         -5.45376       -0.95155       -0.69694
H         -4.97224       -1.73882        0.79037
H          0.94345       -2.19754        1.85596
C          2.82252        0.49828        0.50062
C          2.38488       -0.93179        0.98492
C          3.16189       -1.94751        0.10120
C          3.74450       -1.14314       -1.06160
C          4.01632        0.22887       -0.45190
H          3.16380        1.07658        1.36685
H          2.81457       -0.99101        1.99404
H          3.98291       -2.37734        0.69440
H          2.53191       -2.78153       -0.23164
H          4.65196       -1.59885       -1.48342
H          3.01525       -1.05613       -1.88237
H          4.15463        1.02655       -1.19652
H          4.93171        0.19051        0.15795
O          0.51275       -1.74597       -1.18990
H         -1.21605       -3.14038       -0.33144
H          0.93882       -0.90445       -1.42055
