49
M1_hydrate_4_solv.log	Energy: -762584.1968579
C         -1.50107        1.56566       -1.25346
N         -1.91508        2.07623        0.04725
C         -1.31513        1.63862        1.15633
C         -0.16990        2.12446       -1.76520
H         -2.26028        1.90389       -1.96863
N         -1.33118        2.34016        2.27481
H         -1.67145        3.29646        2.27141
H         -1.01216        1.94065        3.15074
H         -2.39376        2.97140        0.08385
N         -0.69436        0.45057        1.08731
C          0.13956       -1.58065        0.15145
C          1.08717       -1.06633        1.29191
C          0.24207       -0.05866        2.07787
O         -0.30945       -2.87912        0.41261
H          0.84242        0.76575        2.48394
H         -0.29685       -0.54234        2.90809
H         -0.17868        2.08396       -2.86075
H         -0.03589        3.16515       -1.44317
O          0.94908        1.32848       -1.38163
C          1.64170        1.61386       -0.28017
O          1.38610        2.56257        0.43078
C         -1.51790        0.03012       -1.24617
C         -1.09935       -0.56456        0.13624
N         -2.32166       -1.22205        0.56772
C         -3.25953       -1.21571       -0.38736
N         -2.85348       -0.50609       -1.43271
H         -0.85160       -0.34125       -2.03104
N         -4.42240       -1.82667       -0.29056
H         -2.31879       -1.91125        1.31302
H         -3.43377       -0.29742       -2.23812
H         -5.08934       -1.78379       -1.05322
H         -4.65754       -2.35013        0.54550
H          1.28220       -1.92565        1.94823
C          2.77122        0.65017       -0.02932
C          2.50372       -0.55522        0.95067
C          3.43462       -1.68087        0.42705
C          4.32027       -1.04951       -0.65134
C          3.43969        0.03763       -1.26316
H          3.52244        1.26873        0.48249
H          2.88404       -0.23084        1.92891
H          4.01891       -2.11871        1.24871
H          2.84928       -2.51288        0.00505
H          5.20633       -0.58671       -0.18774
H          4.67799       -1.78083       -1.38993
H          2.68560       -0.40775       -1.92605
H          4.00394        0.78482       -1.83991
O          0.67190       -1.58581       -1.12331
H         -0.26451       -3.07201        1.35755
H          1.37475       -2.24732       -1.16547
