49
M1_hydrate_9_solv.log	Energy: -762583.7595904
C         -1.20571        1.56265       -1.36951
N         -1.54456        2.22533       -0.11652
C         -1.05827        1.76800        1.04005
C          0.21125        1.82047       -1.87869
H         -1.87426        1.98003       -2.13289
N         -0.99900        2.53307        2.11433
H         -1.16211        3.53190        2.03796
H         -0.77003        2.14443        3.02242
H         -1.88844        3.18015       -0.14894
N         -0.63443        0.49402        1.06379
C         -0.08792       -1.66470        0.22732
C          0.95298       -1.21737        1.30349
C          0.23012       -0.10439        2.07499
O         -0.78568       -2.79355        0.66540
H          0.91865        0.64987        2.47827
H         -0.36878       -0.50733        2.90647
H          0.24889        1.54547       -2.93937
H          0.47462        2.87985       -1.76978
O          1.18904        0.99353       -1.24440
C          1.82602        1.45474       -0.16623
O          1.60910        2.55434        0.29689
C         -1.49811        0.06361       -1.25811
C         -1.17912       -0.50030        0.15936
N         -2.48692       -0.94411        0.61497
C         -3.41434       -0.83620       -0.34354
N         -2.90668       -0.24279       -1.41718
H         -0.91024       -0.46364       -2.01843
N         -4.65590       -1.25985       -0.22568
H         -2.57275       -1.61282        1.37379
H         -3.44883        0.01491       -2.23490
H         -5.30896       -1.15343       -0.99426
H         -4.96843       -1.69842        0.63359
H          1.03896       -2.08552        1.96939
C          2.86682        0.51321        0.37701
C          2.42517       -0.88193        0.96008
C          3.16384       -1.94433        0.10333
C          3.57931       -1.23000       -1.18030
C          3.93072        0.17356       -0.69786
H          3.32612        1.09390        1.18515
H          2.88312       -0.89550        1.95851
H          4.06638       -2.26946        0.64390
H          2.55183       -2.83622       -0.07872
H          4.41965       -1.72075       -1.69316
H          2.73300       -1.18792       -1.88070
H          3.97509        0.92166       -1.50302
H          4.91760        0.16258       -0.21047
O          0.50209       -1.91093       -0.99786
H         -0.14222       -3.49800        0.82403
H         -0.11934       -2.42472       -1.53334
