49
M1_hydrate_7_solv.log	Energy: -762586.8773712
C         -1.45334        1.75200       -1.06434
N         -1.79624        2.20148        0.27554
C         -1.30213        1.55205        1.33430
C         -0.02480        2.12973       -1.45020
H         -2.11249        2.27347       -1.76953
N         -1.17395        2.16385        2.50217
H         -1.34884        3.16068        2.57570
H         -1.00645        1.63802        3.35261
H         -2.10115        3.16113        0.40637
N         -0.93363        0.27043        1.19847
C          0.00196       -1.45273       -0.17625
C          0.86044       -1.28586        1.11945
C          0.04666       -0.38253        2.05853
O         -0.33906       -2.78289       -0.42357
H          0.67148        0.37591        2.54709
H         -0.45789       -0.96695        2.84167
H          0.24506        1.67372       -2.41137
H          0.05146        3.22234       -1.54246
O          0.86158        1.70265       -0.42383
C          2.03907        1.15491       -0.73949
O          2.49763        1.18812       -1.85889
C         -1.76503        0.26100       -1.17369
C         -1.28926       -0.55523        0.05809
N         -2.45705       -1.36646        0.34609
C         -3.52211       -0.98492       -0.36280
N         -3.19734        0.00824       -1.18856
H         -1.30005       -0.14111       -2.08106
N         -4.72166       -1.51897       -0.25552
H         -2.48461       -2.07213        1.07505
H         -3.79929        0.32132       -1.94296
H         -5.48247       -1.19077       -0.84016
H         -4.89218       -2.26690        0.40784
H          0.92605       -2.28154        1.57977
C          2.72189        0.59607        0.48903
C          2.32124       -0.83825        0.96135
C          3.23161       -1.81520        0.17729
C          4.35728       -0.95125       -0.42341
C          4.22734        0.41614        0.25983
H          2.50649        1.31306        1.29468
H          2.69904       -0.84721        1.99558
H          3.62118       -2.57792        0.86712
H          2.69452       -2.37785       -0.60145
H          5.35292       -1.39341       -0.27801
H          4.20655       -0.83638       -1.50652
H          4.66886        1.23559       -0.32393
H          4.72510        0.40045        1.24146
O          0.59567       -0.97320       -1.33174
H         -0.42029       -3.26840        0.40693
H          1.36460       -1.51813       -1.54378
