44
GTX_12_solv.log	Energy: -1113931.9630041
C         -2.62500        1.13330       -0.35727
N         -1.92231        2.09615       -1.19054
C         -0.71806        1.81023       -1.70379
C         -3.25680        0.02802       -1.21412
H         -3.44900        1.66828        0.13139
N         -0.30047        2.38775       -2.81896
H         -0.92930        2.98145       -3.34993
H          0.67207        2.33883       -3.10194
H         -2.48360        2.78661       -1.68210
N          0.05728        0.92866       -1.06484
C          0.32818       -1.01919        0.17719
C          1.61454       -0.79511       -0.64020
C          1.21402        0.25554       -1.67370
O          0.53341       -1.58668        1.42374
O         -0.48592       -1.80917       -0.60408
O          2.58885       -0.31355        0.26554
H          1.93685       -1.73916       -1.10008
H          0.91538       -0.20667       -2.62438
H          2.04583        0.94975       -1.85217
H         -3.73727        0.49740       -2.08107
H         -2.51013       -0.69361       -1.57071
O         -4.29862       -0.62113       -0.49930
C         -4.08390       -1.80194        0.10145
O         -2.98976       -2.35503        0.16350
H         -5.16730       -3.18493        1.11360
N         -5.20517       -2.29684        0.62863
H         -6.08888       -1.81395        0.52096
C         -1.69410        0.61898        0.74304
C         -0.22143        0.44755        0.27926
N          0.50630        1.21247        1.27746
C         -0.30692        1.80944        2.15038
N         -1.57686        1.56098        1.84230
H         -2.07261       -0.33869        1.12366
N          0.09656        2.54504        3.16570
H          1.52094        1.19393        1.34481
H         -2.36357        1.84292        2.41716
H         -0.57915        2.95624        3.80018
H          1.08608        2.70050        3.32450
H          1.43538       -1.37230        1.70680
H         -1.37277       -1.95537       -0.20290
S          4.19139       -0.68450       -0.06288
O          4.25098       -2.14620        0.04694
O          4.41551       -0.17556       -1.42173
O          4.85908        0.05486        1.00494
