44
GTX_18_solv.log	Energy: -1113931.4761132
C          2.45659       -0.12604       -1.01620
N          2.85913       -0.35433        0.36256
C          1.94345       -0.37018        1.33342
C          1.68369       -1.30279       -1.62617
H          3.37861        0.02093       -1.59122
N          2.17906       -0.97425        2.48492
H          2.96716       -1.60749        2.57496
H          1.54945       -0.86600        3.27236
H          3.75897       -0.78933        0.54139
N          0.77860        0.25953        1.10576
C         -0.90859        1.21026       -0.26898
C         -1.41288       -0.03741        0.50436
C         -0.49234       -0.12334        1.70754
O         -1.53009        2.34638        0.25116
O         -1.07518        1.10890       -1.63900
O         -2.75787        0.10895        0.90094
H         -1.28304       -0.93412       -0.12034
H         -0.43753       -1.13714        2.12020
H         -0.80544        0.58034        2.49403
H          0.64732       -1.33595       -1.26992
H          1.67189       -1.18647       -2.71681
O          2.33415       -2.52625       -1.33996
C          1.85639       -3.26284       -0.31026
O          0.84898       -2.97307        0.31500
H          2.34619       -4.99376        0.62923
N          2.63016       -4.33018       -0.08039
H          3.43052       -4.52977       -0.66764
C          1.62290        1.14684       -1.10760
C          0.62739        1.29880        0.08313
N          0.97471        2.60287        0.60905
C          1.98017        3.17137       -0.06735
N          2.43085        2.34854       -1.00657
H          1.06258        1.14508       -2.05024
N          2.45221        4.37603        0.17837
H          0.31780        3.12703        1.17896
H          3.17721        2.57928       -1.65370
H          3.20119        4.75832       -0.38841
H          2.06560        4.93341        0.93219
H         -2.39822        2.07157        0.58726
H         -1.99206        0.79259       -1.78467
S         -3.89975       -0.53600       -0.14234
O         -5.13844       -0.12771        0.50630
O         -3.62249        0.13929       -1.42846
O         -3.62605       -1.97374       -0.16317
