44
GTX_36_solv.log	Energy: -1113928.0613447
C          2.49186        0.54892        0.06786
N          2.13769       -0.09066        1.33130
C          1.07614       -0.91215        1.35357
C          3.01093       -0.46382       -0.95586
H          3.29286        1.26489        0.28514
N          1.03252       -1.95837        2.15930
H          1.84900       -2.21223        2.70616
H          0.17147       -2.47404        2.30623
H          2.91123       -0.33598        1.94348
N          0.06041       -0.63674        0.52837
C         -0.91793        0.22699       -1.39467
C         -1.89738       -0.78187       -0.76710
C         -1.00634       -1.58317        0.17757
O         -1.59443        1.27106       -1.98709
O         -0.04391       -0.41849       -2.26223
O         -2.87478       -0.04736       -0.05770
H         -2.36123       -1.40742       -1.54381
H         -0.57579       -2.46457       -0.31734
H         -1.58223       -1.90012        1.05587
H          2.21629       -1.15543       -1.26257
H          3.37510        0.07104       -1.84389
O          4.03110       -1.27563       -0.40043
C          5.26726       -0.73802       -0.30033
O          5.54007        0.38620       -0.68768
H          7.09460       -1.32747        0.36171
N          6.12219       -1.59413        0.27434
H          5.83308       -2.53292        0.51983
C          1.29789        1.32575       -0.48522
C         -0.05800        0.63924       -0.16131
N         -0.73597        1.63039        0.64963
C         -0.02872        2.76123        0.74532
N          1.14372        2.63049        0.13259
H          1.41207        1.43293       -1.57241
N         -0.44205        3.84517        1.36795
H         -1.73150        1.55816        0.84719
H          1.87741        3.33058        0.15480
H          0.14191        4.67387        1.39904
H         -1.35254        3.86168        1.81453
H         -0.94723        1.85311       -2.41074
H         -0.55205       -0.79828       -2.99343
S         -4.37133       -0.75865        0.14657
O         -4.86318       -0.98098       -1.21857
O         -4.10445       -1.99744        0.89088
O         -5.06229        0.28501        0.90056
