44
GTX_15_solv.log	Energy: -1113930.2864305
C          2.33464        0.08440        1.11954
N          2.20775       -1.35498        1.23035
C          1.04894       -2.00234        1.13482
C          3.76961        0.46546        0.82159
H          2.07838        0.55451        2.08384
N          1.00214       -3.30588        1.37446
H          1.83968       -3.79552        1.67104
H          0.13007       -3.82088        1.35553
H          3.01671       -1.88028        1.55197
N         -0.06880       -1.34222        0.77760
C         -0.95686       -0.11423       -1.00518
C         -2.05492       -1.06843       -0.48361
C         -1.27097       -2.07661        0.33724
O         -1.37704        1.12069       -1.43029
O         -0.28626       -0.83124       -1.99851
O         -2.95395       -0.36579        0.35860
H         -2.58336       -1.55150       -1.31674
H         -0.98135       -2.92835       -0.29318
H         -1.86032       -2.43527        1.19074
H          3.86394        1.56128        0.81094
H          4.43002        0.07513        1.61125
O          4.12871       -0.08231       -0.43582
C          5.35427        0.23190       -0.90269
O          6.12736        0.95437       -0.29651
H          6.48252       -0.19852       -2.53704
N          5.58631       -0.34370       -2.09024
H          4.89990       -0.95122       -2.51967
C          1.35360        0.59829        0.05497
C         -0.04958        0.01619        0.27210
N         -0.61831        1.00060        1.19125
C         -0.01294        2.18109        0.96679
N          1.09071        2.01347        0.23131
H          1.73453        0.37025       -0.94673
N         -0.44879        3.33662        1.41471
H         -1.62170        0.97300        1.37208
H          1.81718        2.72021        0.16522
H          0.06928        4.18883        1.22832
H         -1.31883        3.38980        1.93407
H         -2.34026        1.09367       -1.63022
H          0.28104       -0.21993       -2.48856
S         -4.41080        0.10059       -0.30311
O         -4.92394        0.97891        0.74061
O         -4.02918        0.78241       -1.56224
O         -5.15025       -1.14155       -0.52494
