44
GTX_11_solv.log	Energy: -1113929.9326532
C          2.53180        0.04562        0.85863
N          1.88687       -0.26281        2.12706
C          0.69086       -0.86999        2.12523
C          3.03004       -1.24589        0.19742
H          3.39956        0.67856        1.07946
N          0.31970       -1.65626        3.12069
H          0.98128       -1.89878        3.85121
H         -0.63749       -1.97978        3.20745
H          2.48815       -0.43128        2.92888
N         -0.11901       -0.65501        1.08216
C         -0.57262       -0.16564       -1.14681
C         -1.80320       -0.88168       -0.55285
C         -1.28451       -1.48487        0.74919
O         -0.88693        0.79957       -2.08536
O          0.32758       -1.07546       -1.67043
O         -2.77230        0.12501       -0.32684
H         -2.18380       -1.64253       -1.24958
H         -0.97059       -2.52920        0.61518
H         -2.06148       -1.43415        1.52342
H          3.70884       -1.76220        0.88982
H          2.18989       -1.90815       -0.04639
O          3.67653       -0.98304       -1.03468
C          4.95493       -0.54472       -0.98738
O          5.57188       -0.39664        0.05436
H          6.38850       -0.00160       -2.31961
N          5.42736       -0.30121       -2.21644
H          4.86477       -0.48653       -3.03753
C          1.58666        0.83905       -0.04293
C          0.10338        0.41925        0.12943
N         -0.53383        1.65133        0.55027
C          0.32527        2.67615        0.56176
N          1.55381        2.25471        0.28156
H          1.89563        0.69876       -1.08638
N         -0.01009        3.92170        0.82603
H         -1.54543        1.75537        0.57172
H          2.36750        2.85885        0.24064
H          0.69030        4.65488        0.81520
H         -0.97408        4.15852        1.03370
H         -1.79870        1.08831       -1.92627
H         -0.10023       -1.55153       -2.39576
S         -4.38606       -0.33389       -0.39084
O         -4.56935       -0.80649       -1.76779
O         -4.50955       -1.38617        0.62507
O         -5.03471        0.93372       -0.06823
