44
GTX_19_solv.log	Energy: -1113927.0892196
C          2.26778        0.15012       -0.43945
N          2.52184        0.43101        0.97227
C          1.51332        0.24565        1.83242
C          1.99707       -1.33647       -0.68762
H          3.17111        0.43618       -0.99012
N          1.71572       -0.14391        3.07668
H          2.63913       -0.44481        3.37295
H          0.97424       -0.09259        3.76774
H          3.46537        0.27780        1.31807
N          0.27077        0.47072        1.37135
C         -1.44992        0.95039       -0.18860
C         -1.70139       -0.38197        0.54847
C         -0.92139       -0.22815        1.84222
O         -2.28983        1.90324        0.39376
O         -1.60311        0.90287       -1.55739
O         -3.05632       -0.64309        0.82297
H         -1.25788       -1.19250       -0.05271
H         -0.64812       -1.19353        2.28469
H         -1.49101        0.36497        2.57320
H          1.04730       -1.64759       -0.23153
H          1.94218       -1.51661       -1.77011
O          2.98919       -2.15033       -0.08751
C          4.17835       -2.24847       -0.72359
O          4.41307       -1.69984       -1.78757
H          5.95191       -3.19046       -0.42309
N          5.03583       -3.01031       -0.03250
H          4.75290       -3.46865        0.82474
C          1.10094        0.99817       -0.94821
C          0.05328        1.27295        0.17192
N          0.24683        2.68558        0.43025
C          1.03025        3.25559       -0.49620
N          1.51099        2.33817       -1.32927
H          0.62097        0.49260       -1.79338
N          1.27985        4.54573       -0.56133
H         -0.42293        3.21456        0.98211
H          2.25507        2.52163       -1.99493
H          1.88575        4.91473       -1.28617
H          0.87097        5.18151        0.11473
H         -2.32290        2.66699       -0.19975
H         -2.44981        0.43214       -1.73289
S         -3.91672       -1.44547       -0.34769
O         -5.22811       -1.55185        0.27889
O         -3.87250       -0.54303       -1.52197
O         -3.20232       -2.70730       -0.56128
