44
GTX_10_solv.log	Energy: -1113929.5911877
C          2.60883        1.15594        0.59304
N          1.90846        1.67997        1.75811
C          0.78319        1.07213        2.16299
C          3.23686       -0.19608        0.93368
H          3.40826        1.86380        0.34208
N          0.42083        1.06985        3.43388
H          1.04470        1.44237        4.14234
H         -0.50918        0.77656        3.71292
H          2.46050        2.15544        2.46648
N          0.03408        0.45891        1.23821
C         -0.28197       -0.68041       -0.77119
C         -1.45997       -1.01160        0.16631
C         -0.96875       -0.57136        1.54014
O         -0.63793       -0.59932       -2.10524
O          0.75903       -1.57107       -0.60134
O         -2.54839       -0.22582       -0.28337
H         -1.70347       -2.08343        0.12469
H         -0.49680       -1.39982        2.08633
H         -1.80638       -0.17533        2.12811
H          3.93878       -0.06779        1.77100
H          2.46878       -0.92470        1.22616
O          3.93293       -0.65592       -0.20994
C          3.96221       -1.98727       -0.43602
O          3.52634       -2.81092        0.34987
H          4.65557       -3.22916       -1.88695
N          4.53130       -2.26171       -1.61756
H          4.88410       -1.52202       -2.21161
C          1.65773        1.07706       -0.60102
C          0.21754        0.67693       -0.18822
N         -0.57589        1.78912       -0.67169
C          0.17275        2.69781       -1.30510
N          1.45731        2.36306       -1.24490
H          2.05471        0.35170       -1.32193
N         -0.30486        3.77334       -1.89598
H         -1.59146        1.75721       -0.70418
H          2.20595        2.90275       -1.66561
H          0.32065        4.42852       -2.35174
H         -1.29976        3.96882       -1.87733
H         -1.58112       -0.37913       -2.14913
H          0.44245       -2.46907       -0.77238
S         -4.09228       -0.83061       -0.02448
O         -4.13813       -2.05285       -0.83473
O         -4.15562       -1.06775        1.42289
O         -4.89935        0.28195       -0.51759
