44
GTX_48_solv.log	Energy: -1113929.0162949
C         -2.56768        0.69113        0.37072
N         -2.08357        2.05437        0.53472
C         -0.94243        2.42570       -0.06230
C         -3.10155        0.49284       -1.05383
H         -3.40002        0.55498        1.07130
N         -0.73622        3.67815       -0.43022
H         -1.48547        4.35875       -0.35370
H          0.18517        4.00423       -0.70124
H         -2.77450        2.77924        0.70808
N         -0.01501        1.48326       -0.27570
C          0.73157       -0.69822       -0.62786
C          1.83649        0.28001       -1.10506
C          1.12340        1.62550       -1.19205
O          1.15908       -1.83951       -0.00698
O         -0.09988       -1.06210       -1.69525
O          2.85475        0.36495       -0.12053
H          2.24851       -0.02465       -2.07727
H          0.76026        1.83244       -2.20919
H          1.80766        2.42765       -0.88450
H         -3.89860        1.22498       -1.24205
H         -2.30509        0.63399       -1.79563
O         -3.57728       -0.82593       -1.25090
C         -4.80012       -1.12715       -0.75726
O         -5.51130       -0.31226       -0.19318
H         -4.46511       -3.02481       -1.46572
N         -5.10376       -2.41299       -0.97294
H         -6.00370       -2.76134       -0.66786
C         -1.47573       -0.31516        0.73450
C         -0.05268        0.19074        0.38884
N          0.60376        0.23492        1.68309
C         -0.17522       -0.28224        2.64137
N         -1.38373       -0.55637        2.16298
H         -1.67535       -1.25430        0.20321
N          0.20837       -0.47469        3.88638
H          1.61811        0.27065        1.75318
H         -2.14836       -0.91991        2.72140
H         -0.42877       -0.87923        4.56359
H          1.15262       -0.23956        4.17202
H          2.08690       -2.03261       -0.26921
H         -0.24708       -0.32851       -2.30659
S          4.24608       -0.50838       -0.39731
O          4.94668       -0.33214        0.86823
O          3.75843       -1.88355       -0.65668
O          4.86331        0.11138       -1.57015
