44
GTX_47_solv.log	Energy: -1113928.7410943
C          2.39201        1.18312       -0.16577
N          2.26735        0.95726        1.27161
C          1.43048        0.00062        1.70253
C          3.09652        0.02296       -0.85482
H          3.00297        2.08471       -0.29752
N          1.67149       -0.67679        2.81105
H          2.55281       -0.55307        3.29898
H          0.96624       -1.27403        3.22929
H          3.10617        1.10654        1.82617
N          0.33778       -0.24488        0.96914
C         -0.90077       -0.32822       -1.00342
C         -1.58575       -1.24655        0.04203
C         -0.52412       -1.42363        1.12253
O         -1.73187        0.37897       -1.82740
O         -0.01166       -1.06299       -1.79904
O         -2.70041       -0.57357        0.60620
H         -1.88143       -2.20793       -0.40064
H          0.06485       -2.34032        0.97368
H         -1.00338       -1.45993        2.11027
H          2.53403       -0.91498       -0.74072
H          3.19909        0.23533       -1.92965
O          4.37310       -0.09733       -0.25038
C          5.06343       -1.22697       -0.50700
O          4.63939       -2.11643       -1.22581
H          6.86766       -2.01639       -0.00593
N          6.24531       -1.22927        0.12486
H          6.53710       -0.44285        0.69145
C          1.01832        1.44689       -0.78254
C         -0.11359        0.65451       -0.07924
N         -0.97193        1.70179        0.44443
C         -0.57329        2.90992        0.02802
N          0.58304        2.82197       -0.62088
H          1.04714        1.18066       -1.84719
N         -1.23458        4.02693        0.24824
H         -1.93220        1.49824        0.71346
H          1.08926        3.61860       -0.99235
H         -0.88086        4.90904       -0.10623
H         -2.11316        4.01041        0.75471
H         -2.61404       -0.05402       -1.86264
H          0.46552       -1.72796       -1.28503
S         -4.20877       -0.98648        0.03141
O         -5.03846        0.02968        0.66612
O         -4.07761       -0.85887       -1.43906
O         -4.42450       -2.36488        0.47113
