44
GTX_53_solv.log	Energy: -1113932.7353051
C         -2.27299        1.09684       -1.09004
N         -2.63850        1.50158        0.26501
C         -1.78030        1.29514        1.26800
C         -1.29147        2.06362       -1.74583
H         -3.18576        1.15530       -1.69613
N         -1.72329        2.11077        2.30487
H         -2.17393        3.01969        2.26421
H         -1.19502        1.86322        3.13504
H         -3.26777        2.29537        0.35515
N         -0.98157        0.21344        1.20742
C          0.13285       -1.59446        0.16985
C          1.10442       -0.47627        0.56723
C          0.39054        0.20742        1.71628
O          0.11407       -2.58722        1.15285
O          0.35304       -2.12478       -1.08804
O          2.37480       -0.95670        0.93619
H          1.17058        0.22392       -0.27764
H          0.74828        1.23082        1.87859
H          0.48683       -0.37026        2.64634
H         -1.15264        1.76537       -2.79367
H         -1.70464        3.07955       -1.71391
O         -0.00873        2.04235       -1.13534
C          0.39889        3.12372       -0.42736
O         -0.33788        4.05566       -0.15195
H          2.07586        3.73981        0.51655
N          1.68934        3.02136       -0.08298
H          2.25504        2.20251       -0.30953
C         -1.80259       -0.36575       -1.11031
C         -1.25079       -0.86335        0.25748
N         -2.30327       -1.74594        0.71995
C         -3.16430       -2.02621       -0.27119
N         -2.89735       -1.29161       -1.34641
H         -1.03260       -0.48989       -1.87975
N         -4.13816       -2.90561       -0.17701
H         -2.11286       -2.41194        1.46425
H         -3.52824       -1.21074       -2.13763
H         -4.75404       -3.07643       -0.96468
H         -4.26970       -3.43379        0.67879
H          1.03327       -2.81799        1.35473
H          1.29994       -2.01004       -1.31439
S          3.54632       -0.75487       -0.22928
O          4.71413       -1.33899        0.41394
O          3.02362       -1.50694       -1.38932
O          3.60822        0.69553       -0.46065
