44
GTX_23_solv.log	Energy: -1113932.5421012
C          2.80178        1.30358        0.15048
N          2.44953        1.18728        1.56297
C          1.60759        0.21724        1.95664
C          3.84176        0.25830       -0.24132
H          3.29166        2.27655        0.01779
N          1.73502       -0.35728        3.14058
H          2.53878       -0.14522        3.72247
H          1.01462       -0.96464        3.51420
H          3.18876        1.42745        2.21938
N          0.61679       -0.12470        1.12698
C         -0.52269       -0.36055       -0.90127
C         -1.30518       -1.10787        0.20286
C         -0.27332       -1.27691        1.30762
O         -1.26639        0.31695       -1.83749
O          0.28724       -1.34542       -1.45389
O         -2.37084       -0.30144        0.67730
H         -1.66915       -2.07742       -0.16298
H          0.29295       -2.21132        1.19138
H         -0.76951       -1.26355        2.28729
H          4.07168        0.33577       -1.31145
H          4.75831        0.44020        0.33576
O          3.41199       -1.05412        0.08621
C          3.08413       -1.90299       -0.90989
O          3.09178       -1.59122       -2.09033
H          2.69040       -3.25657        0.57205
N          2.78692       -3.11697       -0.42686
H          2.39215       -3.80009       -1.06119
C          1.53815        1.31194       -0.72988
C          0.30397        0.66300       -0.04641
N         -0.51406        1.82126        0.28877
C         -0.10031        2.90035       -0.38863
N          1.05713        2.65564       -0.99690
H          1.77439        0.81221       -1.67691
N         -0.75077        4.04333       -0.43428
H         -1.49361        1.68454        0.53246
H          1.63342        3.37727       -1.41781
H         -0.37581        4.82802       -0.95623
H         -1.63610        4.14691        0.04953
H         -2.18366       -0.03646       -1.84881
H          0.90428       -0.97830       -2.10282
S         -3.89480       -0.64991        0.10010
O         -4.65726        0.47638        0.62403
O         -3.72559       -0.65997       -1.37177
O         -4.22418       -1.96532        0.64898
