44
GTX_2_solv.log	Energy: -1113932.3012379
C         -2.59327        0.83462        0.02440
N         -2.12447        2.13020       -0.44193
C         -0.96925        2.20711       -1.11813
C         -3.06739       -0.00776       -1.16928
H         -3.44784        1.01278        0.68724
N         -0.75570        3.16844       -2.00086
H         -1.51036        3.79524       -2.26100
H          0.16666        3.33377       -2.38877
H         -2.81664        2.85389       -0.61429
N         -0.03627        1.27877       -0.87623
C          0.65588       -0.86679       -0.29603
C          1.78299       -0.20388       -1.12103
C          1.09955        0.99794       -1.76308
O          1.04008       -1.68773        0.73363
O         -0.14028       -1.51612       -1.24224
O          2.81013        0.25168       -0.25528
H          2.17671       -0.89644       -1.87739
H          0.73451        0.76430       -2.77231
H          1.80055        1.84225       -1.81415
H         -3.92496        0.49124       -1.64114
H         -2.26318       -0.11689       -1.90798
O         -3.40325       -1.32994       -0.78814
C         -4.58562       -1.52004       -0.16032
O         -5.37522       -0.61711        0.06015
H         -5.61526       -3.08493        0.62463
N         -4.75159       -2.80481        0.17748
H         -4.06613       -3.50434       -0.07943
C         -1.50485        0.14453        0.84274
C         -0.08219        0.38583        0.27281
N          0.62578        0.94457        1.40982
C         -0.15500        1.02896        2.49021
N         -1.40057        0.66892        2.19264
H         -1.72680       -0.93030        0.88543
N          0.25607        1.42646        3.67638
H          1.64106        0.99708        1.43209
H         -2.14630        0.59589        2.87622
H         -0.38856        1.46101        4.45843
H          1.22268        1.69981        3.81578
H          1.96252       -1.99471        0.58626
H         -0.85803       -1.98368       -0.79244
S          4.17316       -0.69729       -0.12662
O          4.87484       -0.03419        0.96527
O          3.64390       -2.04325        0.19586
O          4.81367       -0.63213       -1.44001
