44
GTX_3_solv.log	Energy: -1113932.3778694
C          2.46875        1.23991       -0.39533
N          2.50792        0.80813        0.99592
C          1.67357       -0.15273        1.41721
C          3.01546        0.17586       -1.35145
H          3.10489        2.13048       -0.46806
N          1.97837       -0.91708        2.45142
H          2.92642       -0.92217        2.81353
H          1.30407       -1.56012        2.85043
H          3.38844        0.90876        1.49326
N          0.51201       -0.29673        0.76920
C         -0.88450       -0.15378       -1.08977
C         -1.48412       -1.19196       -0.11272
C         -0.33830       -1.49055        0.84705
O         -1.76996        0.64114       -1.77104
O         -0.06259       -0.90036       -1.93757
O         -2.55925       -0.61216        0.60820
H         -1.80591       -2.09445       -0.64990
H          0.23543       -2.37285        0.53244
H         -0.73364       -1.65131        1.85936
H          2.34757       -0.69309       -1.40486
H          3.11388        0.61093       -2.35408
O          4.30861       -0.22408       -0.93517
C          4.42126       -1.39135       -0.26001
O          3.49061       -2.15949       -0.07937
H          5.90443       -2.44040        0.64769
N          5.67469       -1.57713        0.17206
H          6.40539       -0.91187       -0.04884
C          1.04431        1.63592       -0.77998
C         -0.02594        0.72091       -0.12099
N         -0.85357        1.66871        0.60136
C         -0.44388        2.92737        0.42239
N          0.67390        2.95394       -0.29794
H          0.94958        1.60749       -1.87490
N         -1.06062        3.98581        0.90569
H         -1.77800        1.41360        0.94102
H          1.15761        3.80389       -0.56679
H         -0.69754        4.91648        0.73146
H         -1.90124        3.87592        1.46232
H         -2.65315        0.20864       -1.79446
H          0.28646       -0.32580       -2.63306
S         -4.09994       -0.97894        0.09045
O         -4.89649       -0.08668        0.92310
O         -4.08395       -0.63952       -1.35187
O         -4.26001       -2.41113        0.34048
