44
GTX_54_solv.log	Energy: -1113929.6726572
C         -2.55978        1.20424       -0.73005
N         -2.89299        1.31349        0.68954
C         -1.94562        1.09795        1.60855
C         -1.86679        2.46858       -1.23531
H         -3.51052        1.16249       -1.27629
N         -1.92811        1.75581        2.75351
H         -2.54483        2.54948        2.89582
H         -1.33692        1.45328        3.52068
H         -3.61868        1.98357        0.93263
N         -1.02028        0.15871        1.34448
C          0.21495       -1.42062        0.08426
C          1.12761       -0.32819        0.65992
C          0.35083        0.20179        1.85139
O          0.32975       -2.53460        0.92117
O          0.44548       -1.74392       -1.23497
O          2.40537       -0.77941        1.03756
H          1.20722        0.45166       -0.10717
H          0.63235        1.23079        2.10660
H          0.49016       -0.44728        2.72827
H         -1.61468        2.35433       -2.29737
H         -2.55736        3.31437       -1.12115
O         -0.71083        2.80129       -0.47955
C          0.50434        2.52335       -0.99824
O          0.66393        1.95034       -2.06313
H          2.40158        2.51100       -0.32634
N          1.49331        2.95693       -0.19695
H          1.25357        3.26594        0.73892
C         -1.81273       -0.11595       -1.02314
C         -1.21775       -0.77826        0.25019
N         -2.21499       -1.78925        0.55447
C         -2.96989       -2.03993       -0.52817
N         -2.71879       -1.15351       -1.48961
H         -1.02092        0.06121       -1.75817
N         -3.83390       -3.02725       -0.61535
H         -2.01286       -2.51396        1.23886
H         -3.32575       -1.03044       -2.29442
H         -4.38342       -3.15453       -1.45858
H         -3.95146       -3.67614        0.15538
H          0.00075       -3.30574        0.43858
H          1.41177       -1.67235       -1.39791
S          3.60728       -0.53840       -0.08120
O          4.74259       -1.18728        0.56033
O          3.10846       -1.21330       -1.29946
O          3.71809        0.91869       -0.23397
