44
GTX_9_solv.log	Energy: -1113930.9456355
C          2.56491        1.19067       -0.14223
N          2.39626        0.57003        1.16652
C          1.45061       -0.36403        1.33742
C          3.13688        0.21895       -1.17709
H          3.27314        2.01758       -0.00999
N          1.56664       -1.29871        2.26351
H          2.45870       -1.44895        2.72328
H          0.79654       -1.92181        2.47785
H          3.21237        0.52076        1.77000
N          0.37112       -0.30339        0.54824
C         -0.80350        0.28603       -1.37690
C         -1.56698       -0.85288       -0.66885
C         -0.55065       -1.42260        0.31412
O         -1.62807        1.20925       -1.99297
O          0.11868       -0.21266       -2.27891
O         -2.65688       -0.23501       -0.00949
H         -1.91888       -1.59845       -1.39654
H          0.00135       -2.27017       -0.11510
H         -1.05915       -1.74268        1.23279
H          2.40550       -0.55346       -1.44425
H          3.40768        0.77820       -2.08165
O          4.32087       -0.37703       -0.67774
C          4.23897       -1.64110       -0.20263
O          3.22746       -2.32102       -0.26282
H          5.48847       -2.97643        0.68018
N          5.40306       -2.02998        0.33211
H          6.21235       -1.42179        0.31649
C          1.23535        1.76951       -0.62573
C          0.02410        0.89278       -0.20198
N         -0.77141        1.81044        0.58980
C         -0.23447        3.03389        0.62801
N          0.92640        3.05153       -0.01853
H          1.25941        1.86559       -1.71934
N         -0.78275        4.06652        1.23331
H         -1.72022        1.59083        0.88262
H          1.52167        3.86882       -0.09803
H         -0.32791        4.97291        1.21736
H         -1.67355        3.96641        1.70748
H         -2.49257        1.18025       -1.55458
H         -0.35084       -0.70035       -2.97065
S         -4.04189       -1.15305        0.22294
O         -4.49056       -1.47731       -1.13584
O         -3.58852       -2.31527        0.99672
O         -4.87302       -0.19730        0.94923
