44
GTX_44_solv.log	Energy: -1113928.6794666
C         -2.73832        1.11129       -0.36418
N         -3.01211        0.87006        1.04452
C         -2.07976        0.37739        1.86113
C         -2.00619        2.41594       -0.63991
H         -3.71498        1.22551       -0.85129
N         -2.15495        0.57173        3.16837
H         -2.85211        1.20358        3.54827
H         -1.58864        0.03236        3.81392
H         -3.80040        1.35403        1.46442
N         -1.07062       -0.32431        1.32574
C          0.43205       -0.90463       -0.43254
C          1.15812       -0.30186        0.80179
C          0.21591       -0.55699        1.96164
O          0.78421       -2.22874       -0.63493
O          0.71722       -0.12719       -1.54623
O          2.40704       -0.88827        1.07929
H          1.26088        0.78089        0.66563
H          0.38201        0.13927        2.79114
H          0.30677       -1.59217        2.32603
H         -2.13730        2.67069       -1.70236
H         -2.44583        3.22095       -0.03379
O         -0.62025        2.27291       -0.35844
C          0.15167        3.33539       -0.66904
O         -0.31711        4.44011       -0.88868
H          2.10239        3.77735       -0.92858
N          1.45943        3.03495       -0.68146
H          1.80543        2.07836       -0.69522
C         -2.06052       -0.11162       -0.99059
C         -1.10923       -0.87924       -0.02307
N         -1.67956       -2.21231       -0.01438
C         -2.73756       -2.31297       -0.82715
N         -3.02375       -1.13328       -1.36332
H         -1.49889        0.21478       -1.87433
N         -3.39716       -3.43066       -1.05136
H         -1.13026       -3.01633        0.27290
H         -3.80562       -0.96501       -1.98735
H         -4.18528       -3.44249       -1.68941
H         -3.12812       -4.28645       -0.57864
H          1.74919       -2.23310       -0.81268
H          0.49228       -0.63581       -2.33865
S          3.67119       -0.60018        0.04137
O          4.82378       -0.90927        0.87943
O          3.44113       -1.56444       -1.05591
O          3.54439        0.80579       -0.36419
