44
GTX_6_solv.log	Energy: -1113932.1900370
C          2.77457        1.35273       -0.16698
N          2.67560        0.93796        1.22849
C          1.83725       -0.03591        1.61037
C          3.64970        0.41963       -0.99831
H          3.28386        2.32466       -0.17163
N          2.09288       -0.77019        2.68018
H          3.00421       -0.71724        3.12365
H          1.40663       -1.41246        3.05954
H          3.51731        1.05263        1.78755
N          0.72405       -0.22888        0.89471
C         -0.61920       -0.18395       -1.00469
C         -1.29790       -1.10140        0.04047
C         -0.19726       -1.35898        1.06496
O         -1.44623        0.60035       -1.77039
O          0.15999       -1.05780       -1.76160
O         -2.37331       -0.42293        0.66666
H         -1.63731       -2.03557       -0.42739
H          0.32930       -2.30216        0.86909
H         -0.62942       -1.38512        2.07502
H          3.83804        0.88387       -1.97478
H          4.60852        0.25110       -0.49089
O          2.99629       -0.81131       -1.25549
C          3.26470       -1.88122       -0.47530
O          4.17880       -1.91365        0.32925
H          2.43253       -3.69210       -0.13453
N          2.41024       -2.88318       -0.74402
H          1.54188       -2.65329       -1.22190
C          1.37618        1.56503       -0.77266
C          0.25544        0.73080       -0.08446
N         -0.56977        1.75656        0.53755
C         -0.21351        2.98011        0.12991
N          0.89858        2.92388       -0.59483
H          1.42365        1.33940       -1.84680
N         -0.87210        4.08198        0.42073
H         -1.51701        1.53486        0.83992
H          1.40441        3.73932       -0.92449
H         -0.54568        4.97984        0.08003
H         -1.71515        4.04055        0.98318
H         -2.34210        0.19688       -1.80436
H          0.81222       -0.57385       -2.28607
S         -3.90949       -0.77082        0.11972
O         -4.69190        0.23670        0.82463
O         -3.81993       -0.58059       -1.34665
O         -4.14874       -2.16153        0.50480
