44
GTX_39_solv.log	Energy: -1113929.8752926
C         -2.39533        0.64704       -0.93009
N         -2.31137       -0.77762       -1.17914
C         -1.19009       -1.48333       -1.07097
C         -3.83066        1.05047       -0.63058
H         -2.10644        1.19778       -1.84125
N         -1.20016       -2.77961       -1.35325
H         -2.05038       -3.21361       -1.69667
H         -0.36000       -3.34315       -1.30876
H         -3.18902       -1.27704       -1.34267
N         -0.04751       -0.89066       -0.67028
C          0.83098        0.16621        1.22329
C          1.90454       -0.79372        0.67225
C          1.11705       -1.70070       -0.25937
O          1.36141        1.31983        1.77403
O          0.00143       -0.47582        2.12559
O          2.85169        0.00546       -0.01010
H          2.38293       -1.34916        1.49223
H          0.78122       -2.59073        0.29033
H          1.72024       -2.00843       -1.12184
H         -3.87412        2.13667       -0.48326
H         -4.47713        0.78944       -1.47953
O         -4.32846        0.46936        0.56687
C         -4.96154       -0.71932        0.47798
O         -5.03207       -1.36442       -0.56063
H         -5.41001       -0.48663        2.46435
N         -5.48125       -1.08670        1.65168
H         -5.96725       -1.97239        1.71662
C         -1.42081        1.03238        0.19284
C         -0.03540        0.42171       -0.05675
N          0.58391        1.46006       -0.87606
C          0.01654        2.63889       -0.55935
N         -1.10327        2.44817        0.14500
H         -1.81319        0.72968        1.16956
N          0.49852        3.81181       -0.90187
H          1.58218        1.40580       -1.07750
H         -1.80423        3.17381        0.26204
H          0.00226        4.66195       -0.65609
H          1.37503        3.87842       -1.40862
H          2.25079        1.44758        1.40938
H          0.53120       -0.77974        2.87655
S          4.43344       -0.55857       -0.05656
O          4.84292       -0.58437        1.35234
O          4.33139       -1.88485       -0.67621
O          5.06008        0.47492       -0.87540
