44
GTX_1_solv.log	Energy: -1113931.4418072
C          2.47204        0.61565       -0.05781
N          2.32992        0.17019        1.32278
C          1.34282       -0.68412        1.63038
C          2.94444       -0.51381       -0.97612
H          3.22834        1.40936       -0.06297
N          1.47089       -1.54886        2.62208
H          2.36270       -1.64717        3.09613
H          0.67724       -2.07278        2.97400
H          3.18415        0.09557        1.86837
N          0.22201       -0.63401        0.90197
C         -0.99077       -0.25760       -1.04841
C         -1.81830       -1.19612       -0.14024
C         -0.80788       -1.68076        0.89186
O         -1.68741        0.66983       -1.77956
O         -0.22722       -1.11532       -1.84412
O         -2.83802       -0.45849        0.51354
H         -2.23787       -2.03083       -0.71787
H         -0.35973       -2.64001        0.59937
H         -1.29510       -1.78883        1.87072
H          2.18056       -1.29726       -1.05778
H          3.14459       -0.11009       -1.97829
O          4.09310       -1.15443       -0.44833
C          5.28064       -0.52613       -0.59819
O          5.40653        0.53170       -1.19296
H          7.21570       -0.86263       -0.07873
N          6.26926       -1.21506       -0.01388
H          6.09037       -2.10272        0.43872
C          1.15878        1.21144       -0.55752
C         -0.08608        0.46588        0.00042
N         -0.81381        1.52244        0.68006
C         -0.22002        2.70997        0.52865
N          0.94549        2.57108       -0.09627
H          1.16114        1.19724       -1.65658
N         -0.72083        3.85038        0.95510
H         -1.79383        1.40973        0.92904
H          1.55196        3.34542       -0.34404
H         -0.22441        4.72068        0.79867
H         -1.61591        3.86803        1.43183
H         -2.61972        0.37458       -1.88483
H          0.24377       -0.59339       -2.50785
S         -4.37497       -0.56492       -0.12270
O         -5.06661        0.46637        0.64060
O         -4.19029       -0.26075       -1.56090
O         -4.79871       -1.94337        0.12227
