44
GTX_52_solv.log	Energy: -1113931.4777510
C          2.45645       -0.12538       -1.01646
N          2.85932       -0.35333        0.36228
C          1.94365       -0.36993        1.33314
C          1.68404       -1.30254       -1.62623
H          3.37830        0.02202       -1.59162
N          2.17956       -0.97401        2.48457
H          2.96794       -1.60690        2.57455
H          1.54976       -0.86629        3.27193
H          3.75940       -0.78789        0.54099
N          0.77846        0.25914        1.10552
C         -0.90911        1.21063       -0.26813
C         -1.41301       -0.03789        0.50405
C         -0.49231       -0.12478        1.70703
O         -1.53020        2.34620        0.25376
O         -1.07651        1.11096       -1.63816
O         -2.75800        0.10771        0.90097
H         -1.28306       -0.93396       -0.12155
H         -0.43703       -1.13904        2.11850
H         -0.80560        0.57790        2.49434
H          0.64770       -1.33609       -1.26991
H          1.67212       -1.18631       -2.71688
O          2.33505       -2.52569       -1.33997
C          1.85762       -3.26244       -0.31023
O          0.85016       -2.97300        0.31509
H          2.34822       -4.99311        0.62934
N          2.63175       -4.32953       -0.08045
H          3.43228       -4.52872       -0.66762
C          1.62200        1.14701       -1.10790
C          0.62701        1.29880        0.08334
N          0.97479        2.60263        0.60952
C          1.97965        3.17146       -0.06751
N          2.42936        2.34916       -1.00764
H          1.06119        1.14464       -2.05024
N          2.45201        4.37595        0.17842
H          0.31821        3.12659        1.18002
H          3.17605        2.57958       -1.65449
H          3.20053        4.75844       -0.38883
H          2.06620        4.93296        0.93293
H         -2.39870        2.07134        0.58883
H         -1.99333        0.79445       -1.78375
S         -3.89986       -0.53671       -0.14261
O         -5.13858       -0.12963        0.50677
O         -3.62326        0.13999       -1.42813
O         -3.62554       -1.97430       -0.16493
