44
GTX_34_solv.log	Energy: -1113930.7918706
C          2.64915        1.41736       -0.28760
N          2.62960        1.02210        1.11645
C          1.81660        0.03216        1.51486
C          3.42836        0.42056       -1.14379
H          3.20498        2.36118       -0.35461
N          2.14467       -0.74978        2.52932
H          3.08381       -0.71511        2.91301
H          1.47896       -1.39747        2.93636
H          3.50762        1.11380        1.62164
N          0.65661       -0.14059        0.86804
C         -0.66239       -0.10945       -1.06304
C         -1.26466       -1.13157       -0.06569
C         -0.13291       -1.37965        0.91984
O         -1.56571        0.62250       -1.78636
O          0.18725       -0.76533       -1.96114
O         -2.35289       -0.54512        0.63721
H         -1.57045       -2.05379       -0.57810
H          0.49412       -2.23005        0.61679
H         -0.54169       -1.56654        1.92164
H          3.38795        0.72650       -2.19683
H          4.47369        0.39732       -0.81352
O          2.88131       -0.89238       -1.06949
C          3.53250       -1.83652       -0.33860
O          4.53433       -1.59985        0.30891
H          2.07257       -3.12946       -0.98400
N          2.91974       -3.02206       -0.43846
H          3.27694       -3.80292        0.09793
C          1.22430        1.70099       -0.77817
C          0.14319        0.82032       -0.09468
N         -0.72263        1.79710        0.53663
C         -0.35729        3.04674        0.23164
N          0.78299        3.04435       -0.45213
H          1.18642        1.54479       -1.86468
N         -1.03175        4.12369        0.57603
H         -1.65906        1.54435        0.84376
H          1.24487        3.88194       -0.79013
H         -0.69493        5.04563        0.32091
H         -1.88689        4.03978        1.11484
H         -2.45846        0.21416       -1.72984
H          1.03835       -1.02087       -1.56544
S         -3.88771       -0.95344        0.14316
O         -4.69792       -0.08640        0.98938
O         -3.89938       -0.60621       -1.29755
O         -4.00589       -2.39067        0.38903
