44
GTX_0_solv.log	Energy: -1113935.5850828
C         -2.68979        1.06083        0.02900
N         -2.18282        2.23679       -0.66114
C         -1.04951        2.17018       -1.37504
C         -3.32685        0.08239       -0.96458
H         -3.48451        1.39868        0.70607
N         -0.84293        2.98440       -2.39776
H         -1.58698        3.59632       -2.71654
H          0.07264        3.07600       -2.82424
H         -2.86281        2.93674       -0.94471
N         -0.13145        1.26625       -1.02366
C          0.48935       -0.81634       -0.20377
C          1.63783       -0.29692       -1.10129
C          0.99134        0.84900       -1.87367
O          0.85014       -1.53160        0.91479
O         -0.32743       -1.52504       -1.07580
O          2.69957        0.21133       -0.30918
H          1.99089       -1.08829       -1.77626
H          0.61459        0.51445       -2.84935
H          1.71594        1.66132       -2.02144
H         -3.95407        0.65252       -1.66079
H         -2.56760       -0.46774       -1.53650
O         -4.20257       -0.80974       -0.29072
C         -3.81342       -2.06423       -0.01066
O         -2.68349       -2.49582       -0.21523
H         -4.63216       -3.74021        0.78640
N         -4.80647       -2.77820        0.52320
H         -5.72863       -2.37739        0.64392
C         -1.58491        0.43632        0.88274
C         -0.17865        0.52762        0.22928
N          0.60368        1.19059        1.25785
C         -0.12451        1.46800        2.34099
N         -1.39708        1.13609        2.14163
H         -1.83253       -0.61391        1.08585
N          0.35540        2.00685        3.44284
H          1.62063        1.18790        1.23392
H         -2.11850        1.20790        2.85087
H         -0.25101        2.17970        4.23699
H          1.33786        2.24983        3.50677
H          1.75520       -1.89334        0.79407
H         -1.14192       -1.85347       -0.63582
S          4.01899       -0.77805       -0.07785
O          4.75599       -0.02940        0.93318
O          3.43544       -2.05567        0.39251
O          4.65429       -0.88641       -1.39107
