44
GTX_7_solv.log	Energy: -1113932.3753845
C          2.46909        1.23965       -0.39537
N          2.50811        0.80799        0.99592
C          1.67351       -0.15262        1.41725
C          3.01544        0.17527       -1.35134
H          3.10547        2.13003       -0.46819
N          1.97803       -0.91686        2.45162
H          2.92604       -0.92214        2.81383
H          1.30354       -1.55968        2.85065
H          3.38865        0.90841        1.49327
N          0.51199       -0.29649        0.76914
C         -0.88472       -0.15335       -1.08962
C         -1.48447       -1.19135       -0.11244
C         -0.33886       -1.48985        0.84763
O         -1.77025        0.64167       -1.77076
O         -0.06316       -0.90039       -1.93736
O         -2.55983       -0.61162        0.60818
H         -1.80607       -2.09393       -0.64960
H          0.23453       -2.37263        0.53369
H         -0.73439       -1.64975        1.86000
H          2.34737       -0.69358       -1.40432
H          3.11365        0.60997       -2.35415
O          4.30862       -0.22478       -0.93524
C          4.42130       -1.39199       -0.26002
O          3.49048       -2.15971       -0.07851
H          5.90477       -2.44164        0.64641
N          5.67496       -1.57813        0.17126
H          6.40592       -0.91365       -0.05108
C          1.04475        1.63589       -0.78014
C         -0.02576        0.72119       -0.12108
N         -0.85302        1.66926        0.60135
C         -0.44305        2.92782        0.42225
N          0.67452        2.95406       -0.29835
H          0.95013        1.60743       -1.87506
N         -1.05938        3.98645        0.90566
H         -1.77752        1.41447        0.94108
H          1.15885        3.80381       -0.56675
H         -0.69615        4.91702        0.73123
H         -1.89993        3.87681        1.46244
H         -2.65350        0.20929       -1.79402
H          0.28721       -0.32606       -2.63237
S         -4.10029       -0.97915        0.09028
O         -4.89743       -0.08791        0.92346
O         -4.08454       -0.63887       -1.35183
O         -4.25937       -2.41160        0.33951
