44
GTX_40_solv.log	Energy: -1113929.5987806
C          2.43099       -0.22310       -1.02027
N          2.82466       -0.46614        0.35840
C          1.92034       -0.40648        1.33802
C          1.59076       -1.35725       -1.62135
H          3.35815       -0.13332       -1.59886
N          2.13421       -0.99636        2.50116
H          2.88500       -1.67202        2.59918
H          1.52449       -0.82871        3.29376
H          3.69864       -0.95053        0.53950
N          0.79000        0.28411        1.11214
C         -0.87882        1.21795       -0.31634
C         -1.41465        0.04099        0.54016
C         -0.49121       -0.00819        1.74307
O         -1.53982        2.36851        0.10592
O         -1.01611        1.01151       -1.67636
O         -2.75531        0.19060        0.93700
H         -1.28279       -0.88900       -0.03559
H         -0.47813       -0.99659        2.21605
H         -0.76673        0.75485        2.48727
H          0.55885       -1.34192       -1.25166
H          1.57011       -1.23856       -2.71158
O          2.18550       -2.61135       -1.34604
C          1.69729       -3.31813       -0.30063
O          0.72205       -2.97513        0.34840
H          2.12251       -5.06850        0.63461
N          2.42095       -4.42307       -0.08565
H          3.19619       -4.66419       -0.69073
C          1.67733        1.09846       -1.11228
C          0.66509        1.29101        0.05582
N          1.02236        2.60688        0.54405
C          2.11250        3.09792       -0.05418
N          2.55638        2.24555       -0.97176
H          1.14099        1.14569       -2.06774
N          2.65975        4.26208        0.22906
H          0.48692        3.09603        1.25372
H          3.31329        2.45175       -1.61499
H          3.47156        4.58418       -0.28645
H          2.26535        4.85190        0.95359
H         -1.29632        3.08923       -0.49218
H         -1.94849        0.73101       -1.80985
S         -3.88969       -0.42739       -0.10571
O         -5.13087        0.00964        0.52237
O         -3.59712        0.22174       -1.40396
O         -3.65586       -1.87474       -0.11865
