44
GTX_58_solv.log	Energy: -1113926.9860382
C          2.59517        1.23637        0.10116
N          2.14738        1.93827        1.29353
C          1.11292        1.44556        1.99145
C          3.26783       -0.07775        0.49686
H          3.33516        1.87044       -0.40198
N          1.00333        1.65777        3.29142
H          1.75984        2.10626        3.79812
H          0.14837        1.43900        3.79108
H          2.82999        2.49507        1.80042
N          0.19520        0.72763        1.33444
C         -0.47698       -0.73877       -0.34582
C         -1.48761       -0.84454        0.82055
C         -0.77317       -0.16500        1.98301
O         -0.98541       -0.83953       -1.61475
O          0.49246       -1.70675       -0.06908
O         -2.66289       -0.11546        0.50620
H         -1.71873       -1.89430        1.04634
H         -0.24391       -0.89289        2.61284
H         -1.49866        0.38849        2.59447
H          4.12460        0.14260        1.15277
H          2.55325       -0.72300        1.03245
O          3.70060       -0.71156       -0.69400
C          4.12240       -1.99318       -0.70213
O          4.33747       -2.51920       -1.78009
H          4.62378       -3.55012        0.48315
N          4.27120       -2.60069        0.48616
H          4.19518       -2.12304        1.37545
C          1.42311        1.02835       -0.85655
C          0.10056        0.69479       -0.11846
N         -0.80604        1.71261       -0.61425
C         -0.21239        2.52225       -1.49491
N          1.08184        2.22974       -1.59649
H          1.68409        0.22684       -1.55958
N         -0.82684        3.48167       -2.15449
H         -1.81340        1.62751       -0.50264
H          1.70863        2.66684       -2.26347
H         -0.32059        4.05469       -2.82074
H         -1.81681        3.64762       -2.00912
H         -1.84932       -1.30899       -1.58828
H          1.12045       -1.75008       -0.80440
S         -3.97739       -0.98932       -0.02785
O         -4.87988        0.08094       -0.43325
O         -3.43788       -1.80698       -1.13934
O         -4.39915       -1.79039        1.12125
