44
GTX_43_solv.log	Energy: -1113930.1845230
C          2.45652        0.87497       -0.09773
N          2.02266        2.23472       -0.33349
C          0.75386        2.56995       -0.56559
C          3.81651        0.91257        0.59539
H          2.57048        0.35127       -1.06190
N          0.45392        3.81175       -0.91963
H          1.19083        4.49776       -1.04373
H         -0.49427        4.08291       -1.15167
H          2.73518        2.92584       -0.55626
N         -0.22649        1.66122       -0.41726
C         -1.20585        0.24820        1.17024
C         -2.33475        0.90956        0.34835
C         -1.63556        2.08436       -0.31040
O         -1.41419       -1.05392        1.54815
O         -0.98948        1.09899        2.25634
O         -2.80020        0.01495       -0.64887
H         -3.15375        1.24222        1.00050
H         -1.71213        2.97543        0.32742
H         -2.06927        2.29911       -1.29551
H          4.52007        1.51412        0.00268
H          3.72152        1.34833        1.59832
O          4.31915       -0.39866        0.78093
C          4.96433       -0.97308       -0.26495
O          5.16705       -0.39754       -1.31927
H          5.83907       -2.76239       -0.66276
N          5.32178       -2.22995        0.02550
H          5.14395       -2.62414        0.94116
C          1.39867        0.13512        0.73498
C         -0.00678        0.34936        0.15689
N         -0.07634       -0.74273       -0.81178
C          0.72675       -1.73337       -0.38566
N          1.53343       -1.30346        0.59148
H          1.45445        0.45176        1.78347
N          0.72056       -2.95487       -0.86882
H         -0.97795       -0.96366       -1.23388
H          2.39894       -1.78211        0.82478
H          1.37477       -3.64743       -0.52005
H          0.05829       -3.21757       -1.59126
H         -2.37341       -1.26679        1.49457
H         -0.44794        0.63045        2.90659
S         -4.22674       -0.79040       -0.34144
O         -4.25463       -1.74169       -1.44509
O         -4.01532       -1.39060        0.99681
O         -5.26236        0.24208       -0.35032
