44
GTX_27_solv.log	Energy: -1113931.4777133
C          2.45643       -0.12675       -1.01637
N          2.85896       -0.35517        0.36239
C          1.94339       -0.37047        1.33336
C          1.68307       -1.30318       -1.62635
H          3.37848        0.01982       -1.59144
N          2.17889       -0.97426        2.48502
H          2.96676       -1.60776        2.57524
H          1.54942       -0.86547        3.27250
H          3.75866       -0.79048        0.54121
N          0.77870        0.25954        1.10569
C         -0.90828        1.21037       -0.26921
C         -1.41288       -0.03707        0.50428
C         -0.49233       -0.12317        1.70744
O         -1.52950        2.34675        0.25072
O         -1.07492        1.10878       -1.63922
O         -2.75782        0.10961        0.90091
H         -1.28330       -0.93386       -0.12035
H         -0.43763       -1.13704        2.11995
H         -0.80534        0.58047        2.49400
H          0.64665       -1.33601       -1.27022
H          1.67144       -1.18682       -2.71699
O          2.33309       -2.52688       -1.34018
C          1.85545       -3.26297       -0.31008
O          0.84826       -2.97273        0.31532
H          2.34529       -4.99354        0.63008
N          2.62897       -4.33046       -0.08011
H          3.42941       -4.53020       -0.66721
C          1.62330        1.14648       -1.10771
C          0.62769        1.29872        0.08292
N          0.97512        2.60282        0.60864
C          1.98118        3.17082       -0.06725
N          2.43183        2.34778       -1.00633
H          1.06313        1.14514       -2.05043
N          2.45380        4.37520        0.17872
H          0.31836        3.12710        1.17861
H          3.17843        2.57825       -1.65328
H          3.20308        4.75716       -0.38789
H          2.06711        4.93284        0.93230
H         -2.39776        2.07228        0.58675
H         -1.99174        0.79225       -1.78479
S         -3.89992       -0.53525       -0.14217
O         -5.13847       -0.12600        0.50613
O         -3.62215        0.13925       -1.42860
O         -3.62697       -1.97314       -0.16225
