44
GTX_14_solv.log	Energy: -1113930.9457547
C          2.56493        1.19071       -0.14221
N          2.39627        0.57000        1.16653
C          1.45065       -0.36411        1.33739
C          3.13694        0.21904       -1.17707
H          3.27311        2.01765       -0.00990
N          1.56664       -1.29876        2.26350
H          2.45865       -1.44895        2.72339
H          0.79655       -1.92190        2.47777
H          3.21234        0.52081        1.77006
N          0.37122       -0.30350        0.54813
C         -0.80356        0.28609       -1.37687
C         -1.56696       -0.85291       -0.66885
C         -0.55049       -1.42274        0.31391
O         -1.62821        1.20939       -1.99272
O          0.11856       -0.21249       -2.27902
O         -2.65675       -0.23511       -0.00924
H         -1.91896       -1.59840       -1.39657
H          0.00152       -2.27020       -0.11552
H         -1.05891       -1.74302        1.23256
H          2.40556       -0.55335       -1.44426
H          3.40778        0.77832       -2.08160
O          4.32088       -0.37698       -0.67767
C          4.23894       -1.64108       -0.20267
O          3.22743       -2.32099       -0.26301
H          5.48840       -2.97655        0.67993
N          5.40294       -2.02998        0.33222
H          6.21231       -1.42190        0.31642
C          1.23535        1.76950       -0.62572
C          0.02413        0.89273       -0.20195
N         -0.77130        1.81034        0.58999
C         -0.23446        3.03384        0.62805
N          0.92635        3.05153       -0.01857
H          1.25941        1.86556       -1.71933
N         -0.78279        4.06649        1.23328
H         -1.72007        1.59069        0.88291
H          1.52148        3.86890       -0.09828
H         -0.32793        4.97286        1.21732
H         -1.67352        3.96636        1.70757
H         -2.49262        1.18039       -1.55417
H         -0.35091       -0.70037       -2.97065
S         -4.04189       -1.15305        0.22292
O         -4.49087       -1.47641       -1.13597
O         -3.58857       -2.31577        0.99596
O         -4.87272       -0.19757        0.94993
