44
GTX_49_solv.log	Energy: -1113929.7552500
C          2.68670        1.21429        0.19407
N          2.12711        1.91765        1.34470
C          1.13362        1.31875        2.02221
C          3.41550       -0.03494        0.69972
H          3.41075        1.88420       -0.28468
N          0.98135        1.49444        3.32150
H          1.68579        1.99835        3.85103
H          0.14477        1.18318        3.80332
H          2.75029        2.52105        1.87475
N          0.30543        0.53321        1.31934
C         -0.46463       -0.72094       -0.51505
C         -1.41600       -0.93511        0.69078
C         -0.60325       -0.47055        1.88866
O         -1.07777       -0.59555       -1.73439
O          0.45822       -1.76345       -0.61318
O         -2.54315       -0.07810        0.55964
H         -1.71769       -1.98747        0.78112
H         -0.02289       -1.29224        2.33231
H         -1.27411       -0.04611        2.64649
H          4.25898        0.28128        1.32953
H          2.74537       -0.66033        1.30459
O          3.92253       -0.78930       -0.38462
C          3.61350       -2.10362       -0.44098
O          2.91886       -2.66807        0.39312
H          4.00546       -3.67350       -1.66479
N          4.15776       -2.68423       -1.51338
H          4.73947       -2.15709       -2.15321
C          1.58116        0.91104       -0.81985
C          0.22223        0.63509       -0.12916
N         -0.58618        1.77068       -0.53453
C          0.02840        2.48023       -1.49072
N          1.27151        2.04613       -1.67029
H          1.87632        0.04850       -1.43004
N         -0.52834        3.47706       -2.14578
H         -1.59959        1.73060       -0.45077
H          1.94989        2.49719       -2.27470
H         -0.01154        3.97300       -2.86384
H         -1.48935        3.73994       -1.95629
H         -1.98119       -0.98161       -1.69588
H          1.04787       -1.86269        0.15303
S         -3.95975       -0.75687        0.01393
O         -4.78117        0.43019       -0.19030
O         -3.56289       -1.46170       -1.22813
O         -4.39044       -1.66604        1.07614
