44
GTX_20_solv.log	Energy: -1113932.8951192
C          2.43976        0.57987       -1.11066
N          2.21694        1.98063       -0.81088
C          0.99462        2.47942       -0.62637
C          3.91465        0.22016       -1.02454
H          2.13827        0.37705       -2.15242
N          0.82326        3.79180       -0.54933
H          1.61628        4.41129       -0.67920
H         -0.09473        4.20961       -0.45484
H          2.97246        2.63758       -0.98931
N         -0.06114        1.65062       -0.49968
C         -0.81009       -0.00314        0.97781
C         -2.00433        0.91896        0.64869
C         -1.33475        2.14780        0.05890
O         -1.09658       -1.33536        1.14029
O         -0.20530        0.56465        2.10123
O         -2.83593        0.31291       -0.32671
H         -2.57170        1.16841        1.55577
H         -1.13397        2.87649        0.85529
H         -1.96214        2.61033       -0.71337
H          4.07186       -0.76105       -1.48973
H          4.50339        0.96322       -1.57885
O          4.41024        0.22010        0.30456
C          4.44904       -0.96362        0.95622
O          4.06214       -2.01347        0.46351
H          5.27671        0.07380        2.51972
N          4.95003       -0.82532        2.18745
H          5.03934       -1.64517        2.77445
C          1.54552       -0.24932       -0.18033
C          0.09152        0.22226       -0.28782
N         -0.38258       -0.60597       -1.39549
C          0.33916       -1.74621       -1.39778
N          1.42960       -1.61461       -0.64217
H          1.90660       -0.18428        0.85311
N          0.00631       -2.82915       -2.06341
H         -1.38652       -0.64913       -1.57040
H          2.22853       -2.24606       -0.62657
H          0.60636       -3.64698       -2.04728
H         -0.86568       -2.86366       -2.58090
H         -2.05665       -1.45067        1.32161
H          0.47783       -0.04087        2.42101
S         -4.23540       -0.41198        0.21507
O         -4.69421       -1.07749       -0.99738
O         -3.77294       -1.31974        1.29090
O         -5.07085        0.68324        0.70744
