44
GTX_42_solv.log	Energy: -1113927.9573789
C          2.57008        1.17307        0.65196
N          1.83396        1.64929        1.81492
C          0.71819        1.00065        2.18180
C          3.22508       -0.17250        0.96875
H          3.35651        1.90621        0.43493
N          0.33598        0.95318        3.44614
H          0.94052        1.31926        4.17446
H         -0.58745        0.62097        3.70273
H          2.36043        2.11776        2.54714
N          0.00138        0.39639        1.22646
C         -0.25967       -0.69467       -0.81234
C         -1.46199       -1.04754        0.08093
C         -0.97544       -0.67168        1.47811
O         -0.63113       -0.60941       -2.13743
O          0.78476       -1.58174       -0.59535
O         -2.54733       -0.23608       -0.32189
H         -1.71227       -2.11520       -0.00704
H         -0.48258       -1.51574        1.98015
H         -1.82024       -0.32476        2.08546
H          3.90920       -0.04964        1.82139
H          2.46954       -0.92616        1.22840
O          3.95166       -0.58472       -0.17419
C          4.01248       -1.90762       -0.44052
O          3.58336       -2.76448        0.31276
H          4.75726       -3.08870       -1.91642
N          4.60273       -2.13286       -1.62227
H          4.95415       -1.36805       -2.18451
C          1.64511        1.10272       -0.56240
C          0.20577        0.65760       -0.19170
N         -0.60479        1.76275       -0.66007
C          0.13382        2.70310       -1.25763
N          1.42544        2.39857       -1.18000
H          2.07844        0.40748       -1.29267
N         -0.35951        3.77930       -1.83397
H         -1.61484        1.68089       -0.74838
H          2.16993        2.97521       -1.55652
H          0.25706        4.45967       -2.26426
H         -1.35923        3.94956       -1.82858
H          0.16438       -0.45722       -2.66822
H          0.48679       -2.48012       -0.79610
S         -4.08640       -0.81740       -0.04023
O         -4.16901       -2.04437       -0.84162
O         -4.14348       -1.05045        1.40968
O         -4.88785        0.30398       -0.52550
