44
GTX_31_solv.log	Energy: -1113927.2816265
C          2.32954        0.14045        1.13709
N          2.03835       -1.26330        1.35645
C          0.83303       -1.80921        1.21229
C          3.80780        0.33876        0.87264
H          2.09467        0.71052        2.05139
N          0.63762       -3.07692        1.55148
H          1.39916       -3.61770        1.94743
H         -0.28279       -3.49966        1.52414
H          2.75964       -1.82915        1.79639
N         -0.18204       -1.08992        0.69933
C         -0.81805        0.13955       -1.18619
C         -2.02199       -0.71334       -0.73996
C         -1.39663       -1.74921        0.17952
O         -1.18338        1.37041       -1.70325
O         -0.01780       -0.55128       -2.07812
O         -2.90038        0.15953       -0.05552
H         -2.51817       -1.16704       -1.61050
H         -1.11997       -2.64732       -0.39007
H         -2.08495       -2.02481        0.98780
H          4.02171        1.41354        0.77712
H          4.39562       -0.05093        1.71812
O          4.14691       -0.34894       -0.31979
C          5.41279       -0.20457       -0.76086
O          6.23888        0.48534       -0.18725
H          6.53946       -0.88762       -2.30814
N          5.62062       -0.90454       -1.88447
H          4.88563       -1.46820       -2.29284
C          1.45659        0.68205       -0.00491
C         -0.00200        0.23535        0.14830
N         -0.53467        1.30492        0.98650
C          0.18910        2.41664        0.76476
N          1.31128        2.12321        0.09932
H          1.85649        0.37769       -0.97737
N         -0.16364        3.61974        1.15605
H         -1.54061        1.36496        1.14287
H          2.10365        2.75770        0.06315
H          0.44163        4.41521        0.98175
H         -1.05106        3.76628        1.62524
H         -2.06691        1.58792       -1.36837
H         -0.54241       -0.77483       -2.86016
S         -4.54146       -0.19112       -0.13061
O         -4.87358       -0.03655       -1.55112
O         -4.64494       -1.56997        0.36244
O         -5.07333        0.83899        0.75676
