44
GTX_4_solv.log	Energy: -1113935.5840474
C          2.68987        1.06077       -0.02880
N          2.18303        2.23663        0.66158
C          1.04955        2.17021        1.37520
C          3.32688        0.08201        0.96453
H          3.48464        1.39871       -0.70577
N          0.84294        2.98438        2.39797
H          1.58699        3.59633        2.71669
H         -0.07281        3.07648        2.82398
H          2.86310        2.93640        0.94538
N          0.13130        1.26656        1.02355
C         -0.48914       -0.81629        0.20397
C         -1.63779       -0.29683        1.10123
C         -0.99148        0.84923        1.87356
O         -0.84970       -1.53180       -0.91449
O          0.32760       -1.52473        1.07625
O         -2.69946        0.21123        0.30889
H         -1.99093       -1.08811        1.77625
H         -0.61472        0.51480        2.84928
H         -1.71618        1.66148        2.02126
H          3.95433        0.65191        1.66072
H          2.56760       -0.46802        1.53650
O          4.20229       -0.81017        0.29037
C          3.81299       -2.06463        0.01036
O          2.68312       -2.49621        0.21524
H          4.63140       -3.74051       -0.78726
N          4.80590       -2.77861       -0.52378
H          5.72795       -2.37772       -0.64499
C          1.58494        0.43668       -0.88277
C          0.17868        0.52771       -0.22926
N         -0.60382        1.19030       -1.25796
C          0.12447        1.46852       -2.34080
N          1.39714        1.13709       -2.14132
H          1.83249       -0.61345       -1.08644
N         -0.35544        2.00765       -3.44251
H         -1.62077        1.18758       -1.23402
H          2.11864        1.20930       -2.85043
H          0.25096        2.18076       -4.23661
H         -1.33807        2.24986       -3.50667
H         -1.75483       -1.89342       -0.79393
H          1.14204       -1.85338        0.63631
S         -4.01885       -0.77822        0.07771
O         -4.75630       -0.02933       -0.93280
O         -3.43531       -2.05562       -0.39327
O         -4.65367       -0.88708        1.39112
