44
GTX_46_solv.log	Energy: -1113930.7991371
C          2.64882        1.41677       -0.28841
N          2.62970        1.02167        1.11568
C          1.81664        0.03187        1.51436
C          3.42734        0.41979       -1.14497
H          3.20484        2.36045       -0.35576
N          2.14505       -0.75038        2.52846
H          3.08444       -0.71617        2.91161
H          1.47939       -1.39808        2.93558
H          3.50816        1.11265        1.62022
N          0.65620       -0.14043        0.86824
C         -0.66297       -0.10906       -1.06262
C         -1.26522       -1.13132       -0.06539
C         -0.13350       -1.37936        0.92020
O         -1.56616        0.62301       -1.78589
O          0.18686       -0.76458       -1.96082
O         -2.35360       -0.54512        0.63743
H         -1.57085       -2.05354       -0.57791
H          0.49335       -2.22993        0.61720
H         -0.54226       -1.56613        1.92204
H          3.38547        0.72513       -2.19813
H          4.47312        0.39726       -0.81610
O          2.88093       -0.89332       -1.06925
C          3.53340       -1.83645       -0.33815
O          4.53485       -1.59828        0.30941
H          2.07547       -3.13139       -0.98362
N          2.92222       -3.02276       -0.43771
H          3.28044       -3.80311        0.09874
C          1.22395        1.70055       -0.77856
C          0.14283        0.82057       -0.09439
N         -0.72233        1.79774        0.53717
C         -0.35638        3.04719        0.23203
N          0.78320        3.04412       -0.45289
H          1.18562        1.54389       -1.86498
N         -1.02962        4.12471        0.57719
H         -1.65875        1.54549        0.84472
H          1.24654        3.88150       -0.78944
H         -0.69204        5.04632        0.32187
H         -1.88408        4.04163        1.11723
H         -2.45896        0.21476       -1.72936
H          1.03675       -1.02270       -1.56419
S         -3.88826       -0.95359        0.14292
O         -4.69879       -0.08719        0.98948
O         -3.89983       -0.60559       -1.29761
O         -4.00611       -2.39099        0.38800
