44
GTX_32_solv.log	Energy: -1113930.3320944
C         -2.34599        0.11886       -0.23139
N         -2.24722       -1.31843       -0.38335
C         -1.09851       -1.98201       -0.48923
C         -3.65536        0.47331        0.44345
H         -2.32309        0.59298       -1.22659
N         -1.11163       -3.28635       -0.73012
H         -1.99565       -3.76497       -0.86603
H         -0.25772       -3.80971       -0.88340
H         -3.10448       -1.81722       -0.60892
N          0.07317       -1.34258       -0.32199
C          1.32031       -0.04310        1.17545
C          2.27028       -1.05340        0.49467
C          1.31765       -2.09152       -0.06588
O          1.83703        1.20264        1.42561
O          0.86424       -0.67842        2.33197
O          2.96398       -0.42636       -0.57212
H          2.96672       -1.49327        1.22152
H          1.13544       -2.88046        0.67668
H          1.71801       -2.53739       -0.98554
H         -3.71950       -0.00230        1.43401
H         -3.72722        1.56352        0.56994
O         -4.69503        0.00410       -0.39925
C         -5.95737        0.19100        0.04230
O         -6.21111        0.74746        1.09688
H         -6.56339       -0.75063       -1.68072
N         -6.85466       -0.30482       -0.81979
H         -7.83950       -0.21604       -0.60452
C         -1.15934        0.64701        0.58662
C          0.16466        0.03603        0.10841
N          0.52978        0.97071       -0.95469
C         -0.00088        2.16992       -0.65413
N         -0.92304        2.05183        0.30814
H         -1.31952        0.45866        1.65500
N          0.34028        3.29824       -1.23345
H          1.47112        0.91799       -1.34404
H         -1.61849        2.77067        0.48656
H         -0.11987        4.16625       -0.98005
H          1.07812        3.31339       -1.92964
H          2.81969        1.17341        1.38260
H          0.46752       -0.01006        2.90778
S          4.53719        0.04152       -0.28680
O          4.82561        0.80398       -1.49486
O          4.44907        0.84719        0.95397
O          5.28587       -1.20256       -0.11106
