44
GTX_22_solv.log	Energy: -1113929.5936789
C         -2.37962        1.45028        0.43140
N         -2.86345        0.65640        1.55195
C         -2.05037       -0.27059        2.06866
C         -1.24086        2.36852        0.89275
H         -3.21301        2.06984        0.07927
N         -2.14238       -0.64652        3.33085
H         -2.74303       -0.13955        3.97349
H         -1.65493       -1.47067        3.66716
H         -3.60734        1.02539        2.13701
N         -1.11818       -0.80098        1.25748
C          0.23778       -0.95271       -0.68262
C          1.08195       -0.76171        0.59985
C          0.18333       -1.28083        1.70811
O          0.36180       -2.27614       -1.11315
O          0.54220       -0.05095       -1.68651
O          2.28318       -1.49959        0.53736
H          1.27875        0.31186        0.74385
H          0.43467       -0.85344        2.68606
H          0.22353       -2.37919        1.76469
H         -1.63510        3.08948        1.62248
H         -0.43412        1.79605        1.36989
O         -0.73424        3.07464       -0.22472
C          0.60103        3.05843       -0.44386
O          1.40823        2.60056        0.34697
H          1.87298        3.69112       -1.89389
N          0.90096        3.61834       -1.62160
H          0.17520        3.97656       -2.22959
C         -1.96693        0.52593       -0.70978
C         -1.24765       -0.75749       -0.20155
N         -2.11208       -1.81296       -0.68668
C         -3.12756       -1.33491       -1.41880
N         -3.11141       -0.00826       -1.42640
H         -1.31193        1.06917       -1.39837
N         -4.01261       -2.08982       -2.03601
H         -1.76855       -2.76470       -0.77351
H         -3.81204        0.56867       -1.87933
H         -4.75401       -1.66867       -2.58502
H         -3.96017       -3.09989       -1.96400
H          1.25832       -2.56940       -0.88497
H          1.51939        0.04011       -1.70663
S          3.63573       -0.65585        0.02906
O          4.62627       -1.72228       -0.03852
O          3.23437       -0.10033       -1.28218
O          3.85657        0.36382        1.05504
